<?xml version="1.0" encoding="UTF-8"?>

<!-- generated on 03/25/16 15:53:05 by SUMO jtrrouter Version 0.24.0
<?xml version="1.0" encoding="UTF-8"?>

<configuration xmlns:xsi="http://www.w3.org/2001/XMLSchema-instance" xsi:noNamespaceSchemaLocation="http://sumo.dlr.de/xsd/jtrrouterConfiguration.xsd">

    <input>
        <net-file value="intersection2Test.net.xml"/>
        <flow-files value="intersection2Test.flows.xml"/>
        <turn-ratio-files value="intersection2Test.turns.xml"/>
    </input>

    <output>
        <output-file value="intersection2Test.rou.xml"/>
    </output>

    <processing>
        <ignore-errors value="true"/>
    </processing>

    <report>
        <xml-validation value="never"/>
        <no-step-log value="true"/>
    </report>

</configuration>
-->

<routes xmlns:xsi="http://www.w3.org/2001/XMLSchema-instance" xsi:noNamespaceSchemaLocation="http://sumo.dlr.de/xsd/routes_file.xsd">
    <vehicle id="type0.0" depart="0.00">
        <route edges="D2 L1 L8 D7"/>
    </vehicle>
    <vehicle id="type1.0" depart="0.00">
        <route edges="D5 L5 L8 D7"/>
    </vehicle>
    <vehicle id="type2.0" depart="0.00">
        <route edges="D8 L7 L4 D3"/>
    </vehicle>
    <vehicle id="type3.0" depart="0.00">
        <route edges="D4 L3 L2 D1"/>
    </vehicle>
    <vehicle id="type0.1" depart="6.00">
        <route edges="D2 L1 L8 D7"/>
    </vehicle>
    <vehicle id="type1.1" depart="6.00">
        <route edges="D5 L5 L4 D3"/>
    </vehicle>
    <vehicle id="type2.1" depart="6.00">
        <route edges="D8 L7 L2 D1"/>
    </vehicle>
    <vehicle id="type3.1" depart="6.00">
        <route edges="D4 L3 L2 D1"/>
    </vehicle>
    <vehicle id="type0.2" depart="12.00">
        <route edges="D2 L1 L6 D6"/>
    </vehicle>
    <vehicle id="type1.2" depart="12.00">
        <route edges="D5 L5 L8 D7"/>
    </vehicle>
    <vehicle id="type2.2" depart="12.00">
        <route edges="D8 L7 L2 D1"/>
    </vehicle>
    <vehicle id="type3.2" depart="12.00">
        <route edges="D4 L3 L6 D6"/>
    </vehicle>
    <vehicle id="type0.3" depart="18.00">
        <route edges="D2 L1 L6 D6"/>
    </vehicle>
    <vehicle id="type1.3" depart="18.00">
        <route edges="D5 L5 L4 D3"/>
    </vehicle>
    <vehicle id="type2.3" depart="18.00">
        <route edges="D8 L7 L2 D1"/>
    </vehicle>
    <vehicle id="type3.3" depart="18.00">
        <route edges="D4 L3 L6 D6"/>
    </vehicle>
    <vehicle id="type0.4" depart="24.00">
        <route edges="D2 L1 L6 D6"/>
    </vehicle>
    <vehicle id="type1.4" depart="24.00">
        <route edges="D5 L5 L4 D3"/>
    </vehicle>
    <vehicle id="type2.4" depart="24.00">
        <route edges="D8 L7 L2 D1"/>
    </vehicle>
    <vehicle id="type3.4" depart="24.00">
        <route edges="D4 L3 L2 D1"/>
    </vehicle>
    <vehicle id="type0.5" depart="30.00">
        <route edges="D2 L1 L8 D7"/>
    </vehicle>
    <vehicle id="type1.5" depart="30.00">
        <route edges="D5 L5 L4 D3"/>
    </vehicle>
    <vehicle id="type2.5" depart="30.00">
        <route edges="D8 L7 L2 D1"/>
    </vehicle>
    <vehicle id="type3.5" depart="30.00">
        <route edges="D4 L3 L2 D1"/>
    </vehicle>
    <vehicle id="type0.6" depart="36.00">
        <route edges="D2 L1 L8 D7"/>
    </vehicle>
    <vehicle id="type1.6" depart="36.00">
        <route edges="D5 L5 L4 D3"/>
    </vehicle>
    <vehicle id="type2.6" depart="36.00">
        <route edges="D8 L7 L4 D3"/>
    </vehicle>
    <vehicle id="type3.6" depart="36.00">
        <route edges="D4 L3 L6 D6"/>
    </vehicle>
    <vehicle id="type0.7" depart="42.00">
        <route edges="D2 L1 L6 D6"/>
    </vehicle>
    <vehicle id="type1.7" depart="42.00">
        <route edges="D5 L5 L4 D3"/>
    </vehicle>
    <vehicle id="type2.7" depart="42.00">
        <route edges="D8 L7 L2 D1"/>
    </vehicle>
    <vehicle id="type3.7" depart="42.00">
        <route edges="D4 L3 L6 D6"/>
    </vehicle>
    <vehicle id="type0.8" depart="48.00">
        <route edges="D2 L1 L8 D7"/>
    </vehicle>
    <vehicle id="type1.8" depart="48.00">
        <route edges="D5 L5 L8 D7"/>
    </vehicle>
    <vehicle id="type2.8" depart="48.00">
        <route edges="D8 L7 L4 D3"/>
    </vehicle>
    <vehicle id="type3.8" depart="48.00">
        <route edges="D4 L3 L2 D1"/>
    </vehicle>
    <vehicle id="type0.9" depart="54.00">
        <route edges="D2 L1 L8 D7"/>
    </vehicle>
    <vehicle id="type1.9" depart="54.00">
        <route edges="D5 L5 L8 D7"/>
    </vehicle>
    <vehicle id="type2.9" depart="54.00">
        <route edges="D8 L7 L2 D1"/>
    </vehicle>
    <vehicle id="type3.9" depart="54.00">
        <route edges="D4 L3 L6 D6"/>
    </vehicle>
    <vehicle id="type0.10" depart="60.00">
        <route edges="D2 L1 L6 D6"/>
    </vehicle>
    <vehicle id="type1.10" depart="60.00">
        <route edges="D5 L5 L4 D3"/>
    </vehicle>
    <vehicle id="type2.10" depart="60.00">
        <route edges="D8 L7 L2 D1"/>
    </vehicle>
    <vehicle id="type3.10" depart="60.00">
        <route edges="D4 L3 L6 D6"/>
    </vehicle>
    <vehicle id="type0.11" depart="66.00">
        <route edges="D2 L1 L6 D6"/>
    </vehicle>
    <vehicle id="type1.11" depart="66.00">
        <route edges="D5 L5 L8 D7"/>
    </vehicle>
    <vehicle id="type2.11" depart="66.00">
        <route edges="D8 L7 L4 D3"/>
    </vehicle>
    <vehicle id="type3.11" depart="66.00">
        <route edges="D4 L3 L2 D1"/>
    </vehicle>
    <vehicle id="type0.12" depart="72.00">
        <route edges="D2 L1 L6 D6"/>
    </vehicle>
    <vehicle id="type1.12" depart="72.00">
        <route edges="D5 L5 L4 D3"/>
    </vehicle>
    <vehicle id="type2.12" depart="72.00">
        <route edges="D8 L7 L4 D3"/>
    </vehicle>
    <vehicle id="type3.12" depart="72.00">
        <route edges="D4 L3 L6 D6"/>
    </vehicle>
    <vehicle id="type0.13" depart="78.00">
        <route edges="D2 L1 L6 D6"/>
    </vehicle>
    <vehicle id="type1.13" depart="78.00">
        <route edges="D5 L5 L8 D7"/>
    </vehicle>
    <vehicle id="type2.13" depart="78.00">
        <route edges="D8 L7 L4 D3"/>
    </vehicle>
    <vehicle id="type3.13" depart="78.00">
        <route edges="D4 L3 L6 D6"/>
    </vehicle>
    <vehicle id="type0.14" depart="84.00">
        <route edges="D2 L1 L8 D7"/>
    </vehicle>
    <vehicle id="type1.14" depart="84.00">
        <route edges="D5 L5 L4 D3"/>
    </vehicle>
    <vehicle id="type2.14" depart="84.00">
        <route edges="D8 L7 L2 D1"/>
    </vehicle>
    <vehicle id="type3.14" depart="84.00">
        <route edges="D4 L3 L6 D6"/>
    </vehicle>
    <vehicle id="type0.15" depart="90.00">
        <route edges="D2 L1 L6 D6"/>
    </vehicle>
    <vehicle id="type1.15" depart="90.00">
        <route edges="D5 L5 L8 D7"/>
    </vehicle>
    <vehicle id="type2.15" depart="90.00">
        <route edges="D8 L7 L4 D3"/>
    </vehicle>
    <vehicle id="type3.15" depart="90.00">
        <route edges="D4 L3 L6 D6"/>
    </vehicle>
    <vehicle id="type0.16" depart="96.00">
        <route edges="D2 L1 L8 D7"/>
    </vehicle>
    <vehicle id="type1.16" depart="96.00">
        <route edges="D5 L5 L8 D7"/>
    </vehicle>
    <vehicle id="type2.16" depart="96.00">
        <route edges="D8 L7 L2 D1"/>
    </vehicle>
    <vehicle id="type3.16" depart="96.00">
        <route edges="D4 L3 L2 D1"/>
    </vehicle>
    <vehicle id="type0.17" depart="102.00">
        <route edges="D2 L1 L8 D7"/>
    </vehicle>
    <vehicle id="type1.17" depart="102.00">
        <route edges="D5 L5 L4 D3"/>
    </vehicle>
    <vehicle id="type2.17" depart="102.00">
        <route edges="D8 L7 L2 D1"/>
    </vehicle>
    <vehicle id="type3.17" depart="102.00">
        <route edges="D4 L3 L2 D1"/>
    </vehicle>
    <vehicle id="type0.18" depart="108.00">
        <route edges="D2 L1 L6 D6"/>
    </vehicle>
    <vehicle id="type1.18" depart="108.00">
        <route edges="D5 L5 L4 D3"/>
    </vehicle>
    <vehicle id="type2.18" depart="108.00">
        <route edges="D8 L7 L4 D3"/>
    </vehicle>
    <vehicle id="type3.18" depart="108.00">
        <route edges="D4 L3 L2 D1"/>
    </vehicle>
    <vehicle id="type0.19" depart="114.00">
        <route edges="D2 L1 L8 D7"/>
    </vehicle>
    <vehicle id="type1.19" depart="114.00">
        <route edges="D5 L5 L8 D7"/>
    </vehicle>
    <vehicle id="type2.19" depart="114.00">
        <route edges="D8 L7 L4 D3"/>
    </vehicle>
    <vehicle id="type3.19" depart="114.00">
        <route edges="D4 L3 L6 D6"/>
    </vehicle>
    <vehicle id="type0.20" depart="120.00">
        <route edges="D2 L1 L6 D6"/>
    </vehicle>
    <vehicle id="type1.20" depart="120.00">
        <route edges="D5 L5 L8 D7"/>
    </vehicle>
    <vehicle id="type2.20" depart="120.00">
        <route edges="D8 L7 L2 D1"/>
    </vehicle>
    <vehicle id="type3.20" depart="120.00">
        <route edges="D4 L3 L6 D6"/>
    </vehicle>
    <vehicle id="type0.21" depart="126.00">
        <route edges="D2 L1 L6 D6"/>
    </vehicle>
    <vehicle id="type1.21" depart="126.00">
        <route edges="D5 L5 L8 D7"/>
    </vehicle>
    <vehicle id="type2.21" depart="126.00">
        <route edges="D8 L7 L2 D1"/>
    </vehicle>
    <vehicle id="type3.21" depart="126.00">
        <route edges="D4 L3 L2 D1"/>
    </vehicle>
    <vehicle id="type0.22" depart="132.00">
        <route edges="D2 L1 L6 D6"/>
    </vehicle>
    <vehicle id="type1.22" depart="132.00">
        <route edges="D5 L5 L4 D3"/>
    </vehicle>
    <vehicle id="type2.22" depart="132.00">
        <route edges="D8 L7 L2 D1"/>
    </vehicle>
    <vehicle id="type3.22" depart="132.00">
        <route edges="D4 L3 L2 D1"/>
    </vehicle>
    <vehicle id="type0.23" depart="138.00">
        <route edges="D2 L1 L8 D7"/>
    </vehicle>
    <vehicle id="type1.23" depart="138.00">
        <route edges="D5 L5 L4 D3"/>
    </vehicle>
    <vehicle id="type2.23" depart="138.00">
        <route edges="D8 L7 L4 D3"/>
    </vehicle>
    <vehicle id="type3.23" depart="138.00">
        <route edges="D4 L3 L6 D6"/>
    </vehicle>
    <vehicle id="type0.24" depart="144.00">
        <route edges="D2 L1 L8 D7"/>
    </vehicle>
    <vehicle id="type1.24" depart="144.00">
        <route edges="D5 L5 L8 D7"/>
    </vehicle>
    <vehicle id="type2.24" depart="144.00">
        <route edges="D8 L7 L4 D3"/>
    </vehicle>
    <vehicle id="type3.24" depart="144.00">
        <route edges="D4 L3 L6 D6"/>
    </vehicle>
    <vehicle id="type0.25" depart="150.00">
        <route edges="D2 L1 L6 D6"/>
    </vehicle>
    <vehicle id="type1.25" depart="150.00">
        <route edges="D5 L5 L4 D3"/>
    </vehicle>
    <vehicle id="type2.25" depart="150.00">
        <route edges="D8 L7 L2 D1"/>
    </vehicle>
    <vehicle id="type3.25" depart="150.00">
        <route edges="D4 L3 L2 D1"/>
    </vehicle>
    <vehicle id="type0.26" depart="156.00">
        <route edges="D2 L1 L6 D6"/>
    </vehicle>
    <vehicle id="type1.26" depart="156.00">
        <route edges="D5 L5 L4 D3"/>
    </vehicle>
    <vehicle id="type2.26" depart="156.00">
        <route edges="D8 L7 L2 D1"/>
    </vehicle>
    <vehicle id="type3.26" depart="156.00">
        <route edges="D4 L3 L6 D6"/>
    </vehicle>
    <vehicle id="type0.27" depart="162.00">
        <route edges="D2 L1 L8 D7"/>
    </vehicle>
    <vehicle id="type1.27" depart="162.00">
        <route edges="D5 L5 L4 D3"/>
    </vehicle>
    <vehicle id="type2.27" depart="162.00">
        <route edges="D8 L7 L2 D1"/>
    </vehicle>
    <vehicle id="type3.27" depart="162.00">
        <route edges="D4 L3 L2 D1"/>
    </vehicle>
    <vehicle id="type0.28" depart="168.00">
        <route edges="D2 L1 L6 D6"/>
    </vehicle>
    <vehicle id="type1.28" depart="168.00">
        <route edges="D5 L5 L8 D7"/>
    </vehicle>
    <vehicle id="type2.28" depart="168.00">
        <route edges="D8 L7 L4 D3"/>
    </vehicle>
    <vehicle id="type3.28" depart="168.00">
        <route edges="D4 L3 L2 D1"/>
    </vehicle>
    <vehicle id="type0.29" depart="174.00">
        <route edges="D2 L1 L6 D6"/>
    </vehicle>
    <vehicle id="type1.29" depart="174.00">
        <route edges="D5 L5 L8 D7"/>
    </vehicle>
    <vehicle id="type2.29" depart="174.00">
        <route edges="D8 L7 L2 D1"/>
    </vehicle>
    <vehicle id="type3.29" depart="174.00">
        <route edges="D4 L3 L2 D1"/>
    </vehicle>
    <vehicle id="type0.30" depart="180.00">
        <route edges="D2 L1 L8 D7"/>
    </vehicle>
    <vehicle id="type1.30" depart="180.00">
        <route edges="D5 L5 L8 D7"/>
    </vehicle>
    <vehicle id="type2.30" depart="180.00">
        <route edges="D8 L7 L4 D3"/>
    </vehicle>
    <vehicle id="type3.30" depart="180.00">
        <route edges="D4 L3 L6 D6"/>
    </vehicle>
    <vehicle id="type0.31" depart="186.00">
        <route edges="D2 L1 L6 D6"/>
    </vehicle>
    <vehicle id="type1.31" depart="186.00">
        <route edges="D5 L5 L8 D7"/>
    </vehicle>
    <vehicle id="type2.31" depart="186.00">
        <route edges="D8 L7 L2 D1"/>
    </vehicle>
    <vehicle id="type3.31" depart="186.00">
        <route edges="D4 L3 L2 D1"/>
    </vehicle>
    <vehicle id="type0.32" depart="192.00">
        <route edges="D2 L1 L6 D6"/>
    </vehicle>
    <vehicle id="type1.32" depart="192.00">
        <route edges="D5 L5 L4 D3"/>
    </vehicle>
    <vehicle id="type2.32" depart="192.00">
        <route edges="D8 L7 L2 D1"/>
    </vehicle>
    <vehicle id="type3.32" depart="192.00">
        <route edges="D4 L3 L2 D1"/>
    </vehicle>
    <vehicle id="type0.33" depart="198.00">
        <route edges="D2 L1 L8 D7"/>
    </vehicle>
    <vehicle id="type1.33" depart="198.00">
        <route edges="D5 L5 L4 D3"/>
    </vehicle>
    <vehicle id="type2.33" depart="198.00">
        <route edges="D8 L7 L4 D3"/>
    </vehicle>
    <vehicle id="type3.33" depart="198.00">
        <route edges="D4 L3 L6 D6"/>
    </vehicle>
    <vehicle id="type0.34" depart="204.00">
        <route edges="D2 L1 L6 D6"/>
    </vehicle>
    <vehicle id="type1.34" depart="204.00">
        <route edges="D5 L5 L4 D3"/>
    </vehicle>
    <vehicle id="type2.34" depart="204.00">
        <route edges="D8 L7 L2 D1"/>
    </vehicle>
    <vehicle id="type3.34" depart="204.00">
        <route edges="D4 L3 L6 D6"/>
    </vehicle>
    <vehicle id="type0.35" depart="210.00">
        <route edges="D2 L1 L8 D7"/>
    </vehicle>
    <vehicle id="type1.35" depart="210.00">
        <route edges="D5 L5 L8 D7"/>
    </vehicle>
    <vehicle id="type2.35" depart="210.00">
        <route edges="D8 L7 L4 D3"/>
    </vehicle>
    <vehicle id="type3.35" depart="210.00">
        <route edges="D4 L3 L6 D6"/>
    </vehicle>
    <vehicle id="type0.36" depart="216.00">
        <route edges="D2 L1 L6 D6"/>
    </vehicle>
    <vehicle id="type1.36" depart="216.00">
        <route edges="D5 L5 L4 D3"/>
    </vehicle>
    <vehicle id="type2.36" depart="216.00">
        <route edges="D8 L7 L2 D1"/>
    </vehicle>
    <vehicle id="type3.36" depart="216.00">
        <route edges="D4 L3 L2 D1"/>
    </vehicle>
    <vehicle id="type0.37" depart="222.00">
        <route edges="D2 L1 L8 D7"/>
    </vehicle>
    <vehicle id="type1.37" depart="222.00">
        <route edges="D5 L5 L8 D7"/>
    </vehicle>
    <vehicle id="type2.37" depart="222.00">
        <route edges="D8 L7 L4 D3"/>
    </vehicle>
    <vehicle id="type3.37" depart="222.00">
        <route edges="D4 L3 L6 D6"/>
    </vehicle>
    <vehicle id="type0.38" depart="228.00">
        <route edges="D2 L1 L8 D7"/>
    </vehicle>
    <vehicle id="type1.38" depart="228.00">
        <route edges="D5 L5 L8 D7"/>
    </vehicle>
    <vehicle id="type2.38" depart="228.00">
        <route edges="D8 L7 L4 D3"/>
    </vehicle>
    <vehicle id="type3.38" depart="228.00">
        <route edges="D4 L3 L6 D6"/>
    </vehicle>
    <vehicle id="type0.39" depart="234.00">
        <route edges="D2 L1 L6 D6"/>
    </vehicle>
    <vehicle id="type1.39" depart="234.00">
        <route edges="D5 L5 L4 D3"/>
    </vehicle>
    <vehicle id="type2.39" depart="234.00">
        <route edges="D8 L7 L2 D1"/>
    </vehicle>
    <vehicle id="type3.39" depart="234.00">
        <route edges="D4 L3 L6 D6"/>
    </vehicle>
    <vehicle id="type0.40" depart="240.00">
        <route edges="D2 L1 L6 D6"/>
    </vehicle>
    <vehicle id="type1.40" depart="240.00">
        <route edges="D5 L5 L8 D7"/>
    </vehicle>
    <vehicle id="type2.40" depart="240.00">
        <route edges="D8 L7 L2 D1"/>
    </vehicle>
    <vehicle id="type3.40" depart="240.00">
        <route edges="D4 L3 L6 D6"/>
    </vehicle>
    <vehicle id="type0.41" depart="246.00">
        <route edges="D2 L1 L6 D6"/>
    </vehicle>
    <vehicle id="type1.41" depart="246.00">
        <route edges="D5 L5 L8 D7"/>
    </vehicle>
    <vehicle id="type2.41" depart="246.00">
        <route edges="D8 L7 L2 D1"/>
    </vehicle>
    <vehicle id="type3.41" depart="246.00">
        <route edges="D4 L3 L6 D6"/>
    </vehicle>
    <vehicle id="type0.42" depart="252.00">
        <route edges="D2 L1 L6 D6"/>
    </vehicle>
    <vehicle id="type1.42" depart="252.00">
        <route edges="D5 L5 L8 D7"/>
    </vehicle>
    <vehicle id="type2.42" depart="252.00">
        <route edges="D8 L7 L4 D3"/>
    </vehicle>
    <vehicle id="type3.42" depart="252.00">
        <route edges="D4 L3 L2 D1"/>
    </vehicle>
    <vehicle id="type0.43" depart="258.00">
        <route edges="D2 L1 L8 D7"/>
    </vehicle>
    <vehicle id="type1.43" depart="258.00">
        <route edges="D5 L5 L8 D7"/>
    </vehicle>
    <vehicle id="type2.43" depart="258.00">
        <route edges="D8 L7 L2 D1"/>
    </vehicle>
    <vehicle id="type3.43" depart="258.00">
        <route edges="D4 L3 L2 D1"/>
    </vehicle>
    <vehicle id="type0.44" depart="264.00">
        <route edges="D2 L1 L6 D6"/>
    </vehicle>
    <vehicle id="type1.44" depart="264.00">
        <route edges="D5 L5 L8 D7"/>
    </vehicle>
    <vehicle id="type2.44" depart="264.00">
        <route edges="D8 L7 L2 D1"/>
    </vehicle>
    <vehicle id="type3.44" depart="264.00">
        <route edges="D4 L3 L6 D6"/>
    </vehicle>
    <vehicle id="type0.45" depart="270.00">
        <route edges="D2 L1 L6 D6"/>
    </vehicle>
    <vehicle id="type1.45" depart="270.00">
        <route edges="D5 L5 L8 D7"/>
    </vehicle>
    <vehicle id="type2.45" depart="270.00">
        <route edges="D8 L7 L2 D1"/>
    </vehicle>
    <vehicle id="type3.45" depart="270.00">
        <route edges="D4 L3 L6 D6"/>
    </vehicle>
    <vehicle id="type0.46" depart="276.00">
        <route edges="D2 L1 L6 D6"/>
    </vehicle>
    <vehicle id="type1.46" depart="276.00">
        <route edges="D5 L5 L4 D3"/>
    </vehicle>
    <vehicle id="type2.46" depart="276.00">
        <route edges="D8 L7 L4 D3"/>
    </vehicle>
    <vehicle id="type3.46" depart="276.00">
        <route edges="D4 L3 L6 D6"/>
    </vehicle>
    <vehicle id="type0.47" depart="282.00">
        <route edges="D2 L1 L8 D7"/>
    </vehicle>
    <vehicle id="type1.47" depart="282.00">
        <route edges="D5 L5 L4 D3"/>
    </vehicle>
    <vehicle id="type2.47" depart="282.00">
        <route edges="D8 L7 L4 D3"/>
    </vehicle>
    <vehicle id="type3.47" depart="282.00">
        <route edges="D4 L3 L2 D1"/>
    </vehicle>
    <vehicle id="type0.48" depart="288.00">
        <route edges="D2 L1 L8 D7"/>
    </vehicle>
    <vehicle id="type1.48" depart="288.00">
        <route edges="D5 L5 L8 D7"/>
    </vehicle>
    <vehicle id="type2.48" depart="288.00">
        <route edges="D8 L7 L4 D3"/>
    </vehicle>
    <vehicle id="type3.48" depart="288.00">
        <route edges="D4 L3 L2 D1"/>
    </vehicle>
    <vehicle id="type0.49" depart="294.00">
        <route edges="D2 L1 L8 D7"/>
    </vehicle>
    <vehicle id="type1.49" depart="294.00">
        <route edges="D5 L5 L8 D7"/>
    </vehicle>
    <vehicle id="type2.49" depart="294.00">
        <route edges="D8 L7 L2 D1"/>
    </vehicle>
    <vehicle id="type3.49" depart="294.00">
        <route edges="D4 L3 L6 D6"/>
    </vehicle>
    <vehicle id="type0.50" depart="300.00">
        <route edges="D2 L1 L8 D7"/>
    </vehicle>
    <vehicle id="type1.50" depart="300.00">
        <route edges="D5 L5 L4 D3"/>
    </vehicle>
    <vehicle id="type2.50" depart="300.00">
        <route edges="D8 L7 L2 D1"/>
    </vehicle>
    <vehicle id="type3.50" depart="300.00">
        <route edges="D4 L3 L6 D6"/>
    </vehicle>
    <vehicle id="type0.51" depart="306.00">
        <route edges="D2 L1 L8 D7"/>
    </vehicle>
    <vehicle id="type1.51" depart="306.00">
        <route edges="D5 L5 L4 D3"/>
    </vehicle>
    <vehicle id="type2.51" depart="306.00">
        <route edges="D8 L7 L4 D3"/>
    </vehicle>
    <vehicle id="type3.51" depart="306.00">
        <route edges="D4 L3 L6 D6"/>
    </vehicle>
    <vehicle id="type0.52" depart="312.00">
        <route edges="D2 L1 L8 D7"/>
    </vehicle>
    <vehicle id="type1.52" depart="312.00">
        <route edges="D5 L5 L8 D7"/>
    </vehicle>
    <vehicle id="type2.52" depart="312.00">
        <route edges="D8 L7 L4 D3"/>
    </vehicle>
    <vehicle id="type3.52" depart="312.00">
        <route edges="D4 L3 L2 D1"/>
    </vehicle>
    <vehicle id="type0.53" depart="318.00">
        <route edges="D2 L1 L6 D6"/>
    </vehicle>
    <vehicle id="type1.53" depart="318.00">
        <route edges="D5 L5 L4 D3"/>
    </vehicle>
    <vehicle id="type2.53" depart="318.00">
        <route edges="D8 L7 L2 D1"/>
    </vehicle>
    <vehicle id="type3.53" depart="318.00">
        <route edges="D4 L3 L6 D6"/>
    </vehicle>
    <vehicle id="type0.54" depart="324.00">
        <route edges="D2 L1 L8 D7"/>
    </vehicle>
    <vehicle id="type1.54" depart="324.00">
        <route edges="D5 L5 L4 D3"/>
    </vehicle>
    <vehicle id="type2.54" depart="324.00">
        <route edges="D8 L7 L2 D1"/>
    </vehicle>
    <vehicle id="type3.54" depart="324.00">
        <route edges="D4 L3 L6 D6"/>
    </vehicle>
    <vehicle id="type0.55" depart="330.00">
        <route edges="D2 L1 L8 D7"/>
    </vehicle>
    <vehicle id="type1.55" depart="330.00">
        <route edges="D5 L5 L8 D7"/>
    </vehicle>
    <vehicle id="type2.55" depart="330.00">
        <route edges="D8 L7 L4 D3"/>
    </vehicle>
    <vehicle id="type3.55" depart="330.00">
        <route edges="D4 L3 L2 D1"/>
    </vehicle>
    <vehicle id="type0.56" depart="336.00">
        <route edges="D2 L1 L8 D7"/>
    </vehicle>
    <vehicle id="type1.56" depart="336.00">
        <route edges="D5 L5 L4 D3"/>
    </vehicle>
    <vehicle id="type2.56" depart="336.00">
        <route edges="D8 L7 L4 D3"/>
    </vehicle>
    <vehicle id="type3.56" depart="336.00">
        <route edges="D4 L3 L2 D1"/>
    </vehicle>
    <vehicle id="type0.57" depart="342.00">
        <route edges="D2 L1 L8 D7"/>
    </vehicle>
    <vehicle id="type1.57" depart="342.00">
        <route edges="D5 L5 L4 D3"/>
    </vehicle>
    <vehicle id="type2.57" depart="342.00">
        <route edges="D8 L7 L2 D1"/>
    </vehicle>
    <vehicle id="type3.57" depart="342.00">
        <route edges="D4 L3 L6 D6"/>
    </vehicle>
    <vehicle id="type0.58" depart="348.00">
        <route edges="D2 L1 L6 D6"/>
    </vehicle>
    <vehicle id="type1.58" depart="348.00">
        <route edges="D5 L5 L8 D7"/>
    </vehicle>
    <vehicle id="type2.58" depart="348.00">
        <route edges="D8 L7 L4 D3"/>
    </vehicle>
    <vehicle id="type3.58" depart="348.00">
        <route edges="D4 L3 L6 D6"/>
    </vehicle>
    <vehicle id="type0.59" depart="354.00">
        <route edges="D2 L1 L8 D7"/>
    </vehicle>
    <vehicle id="type1.59" depart="354.00">
        <route edges="D5 L5 L8 D7"/>
    </vehicle>
    <vehicle id="type2.59" depart="354.00">
        <route edges="D8 L7 L2 D1"/>
    </vehicle>
    <vehicle id="type3.59" depart="354.00">
        <route edges="D4 L3 L2 D1"/>
    </vehicle>
    <vehicle id="type0.60" depart="360.00">
        <route edges="D2 L1 L8 D7"/>
    </vehicle>
    <vehicle id="type1.60" depart="360.00">
        <route edges="D5 L5 L8 D7"/>
    </vehicle>
    <vehicle id="type2.60" depart="360.00">
        <route edges="D8 L7 L4 D3"/>
    </vehicle>
    <vehicle id="type3.60" depart="360.00">
        <route edges="D4 L3 L6 D6"/>
    </vehicle>
    <vehicle id="type0.61" depart="366.00">
        <route edges="D2 L1 L8 D7"/>
    </vehicle>
    <vehicle id="type1.61" depart="366.00">
        <route edges="D5 L5 L4 D3"/>
    </vehicle>
    <vehicle id="type2.61" depart="366.00">
        <route edges="D8 L7 L4 D3"/>
    </vehicle>
    <vehicle id="type3.61" depart="366.00">
        <route edges="D4 L3 L6 D6"/>
    </vehicle>
    <vehicle id="type0.62" depart="372.00">
        <route edges="D2 L1 L8 D7"/>
    </vehicle>
    <vehicle id="type1.62" depart="372.00">
        <route edges="D5 L5 L8 D7"/>
    </vehicle>
    <vehicle id="type2.62" depart="372.00">
        <route edges="D8 L7 L2 D1"/>
    </vehicle>
    <vehicle id="type3.62" depart="372.00">
        <route edges="D4 L3 L2 D1"/>
    </vehicle>
    <vehicle id="type0.63" depart="378.00">
        <route edges="D2 L1 L6 D6"/>
    </vehicle>
    <vehicle id="type1.63" depart="378.00">
        <route edges="D5 L5 L4 D3"/>
    </vehicle>
    <vehicle id="type2.63" depart="378.00">
        <route edges="D8 L7 L2 D1"/>
    </vehicle>
    <vehicle id="type3.63" depart="378.00">
        <route edges="D4 L3 L6 D6"/>
    </vehicle>
    <vehicle id="type0.64" depart="384.00">
        <route edges="D2 L1 L8 D7"/>
    </vehicle>
    <vehicle id="type1.64" depart="384.00">
        <route edges="D5 L5 L8 D7"/>
    </vehicle>
    <vehicle id="type2.64" depart="384.00">
        <route edges="D8 L7 L4 D3"/>
    </vehicle>
    <vehicle id="type3.64" depart="384.00">
        <route edges="D4 L3 L6 D6"/>
    </vehicle>
    <vehicle id="type0.65" depart="390.00">
        <route edges="D2 L1 L6 D6"/>
    </vehicle>
    <vehicle id="type1.65" depart="390.00">
        <route edges="D5 L5 L8 D7"/>
    </vehicle>
    <vehicle id="type2.65" depart="390.00">
        <route edges="D8 L7 L4 D3"/>
    </vehicle>
    <vehicle id="type3.65" depart="390.00">
        <route edges="D4 L3 L2 D1"/>
    </vehicle>
    <vehicle id="type0.66" depart="396.00">
        <route edges="D2 L1 L6 D6"/>
    </vehicle>
    <vehicle id="type1.66" depart="396.00">
        <route edges="D5 L5 L8 D7"/>
    </vehicle>
    <vehicle id="type2.66" depart="396.00">
        <route edges="D8 L7 L4 D3"/>
    </vehicle>
    <vehicle id="type3.66" depart="396.00">
        <route edges="D4 L3 L2 D1"/>
    </vehicle>
    <vehicle id="type0.67" depart="402.00">
        <route edges="D2 L1 L8 D7"/>
    </vehicle>
    <vehicle id="type1.67" depart="402.00">
        <route edges="D5 L5 L4 D3"/>
    </vehicle>
    <vehicle id="type2.67" depart="402.00">
        <route edges="D8 L7 L2 D1"/>
    </vehicle>
    <vehicle id="type3.67" depart="402.00">
        <route edges="D4 L3 L6 D6"/>
    </vehicle>
    <vehicle id="type0.68" depart="408.00">
        <route edges="D2 L1 L6 D6"/>
    </vehicle>
    <vehicle id="type1.68" depart="408.00">
        <route edges="D5 L5 L8 D7"/>
    </vehicle>
    <vehicle id="type2.68" depart="408.00">
        <route edges="D8 L7 L2 D1"/>
    </vehicle>
    <vehicle id="type3.68" depart="408.00">
        <route edges="D4 L3 L6 D6"/>
    </vehicle>
    <vehicle id="type0.69" depart="414.00">
        <route edges="D2 L1 L8 D7"/>
    </vehicle>
    <vehicle id="type1.69" depart="414.00">
        <route edges="D5 L5 L4 D3"/>
    </vehicle>
    <vehicle id="type2.69" depart="414.00">
        <route edges="D8 L7 L2 D1"/>
    </vehicle>
    <vehicle id="type3.69" depart="414.00">
        <route edges="D4 L3 L2 D1"/>
    </vehicle>
    <vehicle id="type0.70" depart="420.00">
        <route edges="D2 L1 L6 D6"/>
    </vehicle>
    <vehicle id="type1.70" depart="420.00">
        <route edges="D5 L5 L4 D3"/>
    </vehicle>
    <vehicle id="type2.70" depart="420.00">
        <route edges="D8 L7 L2 D1"/>
    </vehicle>
    <vehicle id="type3.70" depart="420.00">
        <route edges="D4 L3 L6 D6"/>
    </vehicle>
    <vehicle id="type0.71" depart="426.00">
        <route edges="D2 L1 L6 D6"/>
    </vehicle>
    <vehicle id="type1.71" depart="426.00">
        <route edges="D5 L5 L8 D7"/>
    </vehicle>
    <vehicle id="type2.71" depart="426.00">
        <route edges="D8 L7 L4 D3"/>
    </vehicle>
    <vehicle id="type3.71" depart="426.00">
        <route edges="D4 L3 L2 D1"/>
    </vehicle>
    <vehicle id="type0.72" depart="432.00">
        <route edges="D2 L1 L6 D6"/>
    </vehicle>
    <vehicle id="type1.72" depart="432.00">
        <route edges="D5 L5 L8 D7"/>
    </vehicle>
    <vehicle id="type2.72" depart="432.00">
        <route edges="D8 L7 L4 D3"/>
    </vehicle>
    <vehicle id="type3.72" depart="432.00">
        <route edges="D4 L3 L6 D6"/>
    </vehicle>
    <vehicle id="type0.73" depart="438.00">
        <route edges="D2 L1 L8 D7"/>
    </vehicle>
    <vehicle id="type1.73" depart="438.00">
        <route edges="D5 L5 L4 D3"/>
    </vehicle>
    <vehicle id="type2.73" depart="438.00">
        <route edges="D8 L7 L2 D1"/>
    </vehicle>
    <vehicle id="type3.73" depart="438.00">
        <route edges="D4 L3 L2 D1"/>
    </vehicle>
    <vehicle id="type0.74" depart="444.00">
        <route edges="D2 L1 L8 D7"/>
    </vehicle>
    <vehicle id="type1.74" depart="444.00">
        <route edges="D5 L5 L8 D7"/>
    </vehicle>
    <vehicle id="type2.74" depart="444.00">
        <route edges="D8 L7 L4 D3"/>
    </vehicle>
    <vehicle id="type3.74" depart="444.00">
        <route edges="D4 L3 L2 D1"/>
    </vehicle>
    <vehicle id="type0.75" depart="450.00">
        <route edges="D2 L1 L6 D6"/>
    </vehicle>
    <vehicle id="type1.75" depart="450.00">
        <route edges="D5 L5 L4 D3"/>
    </vehicle>
    <vehicle id="type2.75" depart="450.00">
        <route edges="D8 L7 L2 D1"/>
    </vehicle>
    <vehicle id="type3.75" depart="450.00">
        <route edges="D4 L3 L6 D6"/>
    </vehicle>