<?xml version="1.0" encoding="UTF-8"?>

<!-- generated on 03/25/16 15:49:16 by SUMO netconvert Version 0.24.0
<?xml version="1.0" encoding="UTF-8"?>

<configuration xmlns:xsi="http://www.w3.org/2001/XMLSchema-instance" xsi:noNamespaceSchemaLocation="http://sumo.dlr.de/xsd/netconvertConfiguration.xsd">

    <input>
        <node-files value="intersection2Test.nod.xml"/>
        <edge-files value="intersection2Test.edg.xml"/>
        <connection-files value="intersection2Test.con.xml"/>
        <type-files value="intersection2Test.typ.xml"/>
    </input>

    <output>
        <output-file value="intersection2Test.net.xml"/>
    </output>

    <processing>
        <no-turnarounds value="true"/>
    </processing>

</configuration>
-->

<net version="0.13" xmlns:xsi="http://www.w3.org/2001/XMLSchema-instance" xsi:noNamespaceSchemaLocation="http://sumo.dlr.de/xsd/net_file.xsd">

    <location netOffset="500.00,500.00" convBoundary="0.00,0.00,1000.00,1000.00" origBoundary="-500.00,-500.00,500.00,500.00" projParameter="!"/>

    <type id="a" priority="1" numLanes="2" speed="14.00"/>

    <edge id=":5_0" function="internal">
        <lane id=":5_0_0" index="0" speed="14.00" length="0.10" shape="100.00,504.95 100.00,504.95"/>
        <lane id=":5_0_1" index="1" speed="14.00" length="0.10" shape="100.00,501.65 100.00,501.65"/>
    </edge>
    <edge id=":5_2" function="internal">
        <lane id=":5_2_0" index="0" speed="14.00" length="0.10" shape="100.00,495.05 100.00,495.05"/>
        <lane id=":5_2_1" index="1" speed="14.00" length="0.10" shape="100.00,498.35 100.00,498.35"/>
    </edge>
    <edge id=":6_0" function="internal">
        <lane id=":6_0_0" index="0" speed="14.00" length="0.10" shape="495.05,900.00 495.05,900.00"/>
        <lane id=":6_0_1" index="1" speed="14.00" length="0.10" shape="498.35,900.00 498.35,900.00"/>
    </edge>
    <edge id=":6_2" function="internal">
        <lane id=":6_2_0" index="0" speed="14.00" length="0.10" shape="504.95,900.00 504.95,900.00"/>
        <lane id=":6_2_1" index="1" speed="14.00" length="0.10" shape="501.65,900.00 501.65,900.00"/>
    </edge>
    <edge id=":7_0" function="internal">
        <lane id=":7_0_0" index="0" speed="14.00" length="0.10" shape="900.00,504.95 900.00,504.95"/>
        <lane id=":7_0_1" index="1" speed="14.00" length="0.10" shape="900.00,501.65 900.00,501.65"/>
    </edge>
    <edge id=":7_2" function="internal">
        <lane id=":7_2_0" index="0" speed="14.00" length="0.10" shape="900.00,495.05 900.00,495.05"/>
        <lane id=":7_2_1" index="1" speed="14.00" length="0.10" shape="900.00,498.35 900.00,498.35"/>
    </edge>
    <edge id=":8_0" function="internal">
        <lane id=":8_0_0" index="0" speed="14.00" length="0.10" shape="495.05,100.00 495.05,100.00"/>
        <lane id=":8_0_1" index="1" speed="14.00" length="0.10" shape="498.35,100.00 498.35,100.00"/>
    </edge>
    <edge id=":8_2" function="internal">
        <lane id=":8_2_0" index="0" speed="14.00" length="0.10" shape="504.95,100.00 504.95,100.00"/>
        <lane id=":8_2_1" index="1" speed="14.00" length="0.10" shape="501.65,100.00 501.65,100.00"/>
    </edge>
    <edge id=":9_0" function="internal">
        <lane id=":9_0_0" index="0" speed="14.00" length="6.42" shape="495.05,508.05 494.86,506.69 494.28,505.73 493.31,505.14 491.95,504.95"/>
        <lane id=":9_0_1" index="1" speed="14.00" length="6.42" shape="495.05,508.05 494.86,505.25 494.28,503.25 493.31,502.05 491.95,501.65"/>
    </edge>
    <edge id=":9_2" function="internal">
        <lane id=":9_2_0" index="0" speed="14.00" length="16.32" shape="498.35,508.05 497.83,503.22 496.70,500.00 495.57,496.78 495.05,491.95"/>
        <lane id=":9_2_1" index="1" speed="14.00" length="16.32" shape="498.35,508.05 498.35,503.27 498.35,500.00 498.35,496.73 498.35,491.95"/>
    </edge>
    <edge id=":9_4" function="internal">
        <lane id=":9_4_0" index="0" speed="14.00" length="6.42" shape="508.05,504.95 506.69,505.14 505.73,505.72 505.14,506.69 504.95,508.05"/>
        <lane id=":9_4_1" index="1" speed="14.00" length="6.42" shape="508.05,504.95 505.25,505.14 503.25,505.72 502.05,506.69 501.65,508.05"/>
    </edge>
    <edge id=":9_6" function="internal">
        <lane id=":9_6_0" index="0" speed="14.00" length="16.32" shape="508.05,501.65 503.22,502.17 500.00,503.30 496.78,504.43 491.95,504.95"/>
        <lane id=":9_6_1" index="1" speed="14.00" length="16.32" shape="508.05,501.65 503.27,501.65 500.00,501.65 496.73,501.65 491.95,501.65"/>
    </edge>
    <edge id=":9_8" function="internal">
        <lane id=":9_8_0" index="0" speed="14.00" length="6.42" shape="504.95,491.95 505.14,493.31 505.72,494.27 506.69,494.86 508.05,495.05"/>
        <lane id=":9_8_1" index="1" speed="14.00" length="6.42" shape="504.95,491.95 505.14,494.75 505.72,496.75 506.69,497.95 508.05,498.35"/>
    </edge>
    <edge id=":9_10" function="internal">
        <lane id=":9_10_0" index="0" speed="14.00" length="16.32" shape="501.65,491.95 502.17,496.78 503.30,500.00 504.43,503.22 504.95,508.05"/>
        <lane id=":9_10_1" index="1" speed="14.00" length="16.32" shape="501.65,491.95 501.65,496.73 501.65,500.00 501.65,503.27 501.65,508.05"/>
    </edge>
    <edge id=":9_12" function="internal">
        <lane id=":9_12_0" index="0" speed="14.00" length="6.42" shape="491.95,495.05 493.31,494.86 494.28,494.28 494.86,493.31 495.05,491.95"/>
        <lane id=":9_12_1" index="1" speed="14.00" length="6.42" shape="491.95,495.05 494.75,494.86 496.75,494.28 497.95,493.31 498.35,491.95"/>
    </edge>
    <edge id=":9_14" function="internal">
        <lane id=":9_14_0" index="0" speed="14.00" length="16.32" shape="491.95,498.35 496.78,497.83 500.00,496.70 503.22,495.57 508.05,495.05"/>
        <lane id=":9_14_1" index="1" speed="14.00" length="16.32" shape="491.95,498.35 496.73,498.35 500.00,498.35 503.27,498.35 508.05,498.35"/>
    </edge>

    <edge id="D1" from="5" to="1" priority="1" type="a">
        <lane id="D1_0" index="0" speed="14.00" length="100.00" shape="100.00,504.95 0.00,504.95"/>
        <lane id="D1_1" index="1" speed="14.00" length="100.00" shape="100.00,501.65 0.00,501.65"/>
    </edge>
    <edge id="D2" from="1" to="5" priority="1" type="a">
        <lane id="D2_0" index="0" speed="14.00" length="100.00" shape="0.00,495.05 100.00,495.05"/>
        <lane id="D2_1" index="1" speed="14.00" length="100.00" shape="0.00,498.35 100.00,498.35"/>
    </edge>
    <edge id="D3" from="6" to="2" priority="1" type="a">
        <lane id="D3_0" index="0" speed="14.00" length="100.00" shape="504.95,900.00 504.95,1000.00"/>
        <lane id="D3_1" index="1" speed="14.00" length="100.00" shape="501.65,900.00 501.65,1000.00"/>
    </edge>
    <edge id="D4" from="2" to="6" priority="1" type="a">
        <lane id="D4_0" index="0" speed="14.00" length="100.00" shape="495.05,1000.00 495.05,900.00"/>
        <lane id="D4_1" index="1" speed="14.00" length="100.00" shape="498.35,1000.00 498.35,900.00"/>
    </edge>
    <edge id="D5" from="4" to="8" priority="1" type="a">
        <lane id="D5_0" index="0" speed="14.00" length="100.00" shape="504.95,0.00 504.95,100.00"/>
        <lane id="D5_1" index="1" speed="14.00" length="100.00" shape="501.65,0.00 501.65,100.00"/>
    </edge>
    <edge id="D6" from="8" to="4" priority="1" type="a">
        <lane id="D6_0" index="0" speed="14.00" length="100.00" shape="495.05,100.00 495.05,0.00"/>
        <lane id="D6_1" index="1" speed="14.00" length="100.00" shape="498.35,100.00 498.35,0.00"/>
    </edge>
    <edge id="D7" from="7" to="3" priority="1" type="a">
        <lane id="D7_0" index="0" speed="14.00" length="100.00" shape="900.00,495.05 1000.00,495.05"/>
        <lane id="D7_1" index="1" speed="14.00" length="100.00" shape="900.00,498.35 1000.00,498.35"/>
    </edge>
    <edge id="D8" from="3" to="7" priority="1" type="a">
        <lane id="D8_0" index="0" speed="14.00" length="100.00" shape="1000.00,504.95 900.00,504.95"/>
        <lane id="D8_1" index="1" speed="14.00" length="100.00" shape="1000.00,501.65 900.00,501.65"/>
    </edge>
    <edge id="L1" from="5" to="9" priority="1" type="a">
        <lane id="L1_0" index="0" speed="14.00" length="391.95" shape="100.00,495.05 491.95,495.05"/>
        <lane id="L1_1" index="1" speed="14.00" length="391.95" shape="100.00,498.35 491.95,498.35"/>
    </edge>
    <edge id="L2" from="9" to="5" priority="1" type="a">
        <lane id="L2_0" index="0" speed="14.00" length="391.95" shape="491.95,504.95 100.00,504.95"/>
        <lane id="L2_1" index="1" speed="14.00" length="391.95" shape="491.95,501.65 100.00,501.65"/>
    </edge>
    <edge id="L3" from="6" to="9" priority="1" type="a">
        <lane id="L3_0" index="0" speed="14.00" length="391.95" shape="495.05,900.00 495.05,508.05"/>
        <lane id="L3_1" index="1" speed="14.00" length="391.95" shape="498.35,900.00 498.35,508.05"/>
    </edge>
    <edge id="L4" from="9" to="6" priority="1" type="a">
        <lane id="L4_0" index="0" speed="14.00" length="391.95" shape="504.95,508.05 504.95,900.00"/>
        <lane id="L4_1" index="1" speed="14.00" length="391.95" shape="501.65,508.05 501.65,900.00"/>
    </edge>
    <edge id="L5" from="8" to="9" priority="1" type="a">
        <lane id="L5_0" index="0" speed="14.00" length="391.95" shape="504.95,100.00 504.95,491.95"/>
        <lane id="L5_1" index="1" speed="14.00" length="391.95" shape="501.65,100.00 501.65,491.95"/>
    </edge>
    <edge id="L6" from="9" to="8" priority="1" type="a">
        <lane id="L6_0" index="0" speed="14.00" length="391.95" shape="495.05,491.95 495.05,100.00"/>
        <lane id="L6_1" index="1" speed="14.00" length="391.95" shape="498.35,491.95 498.35,100.00"/>
    </edge>
    <edge id="L7" from="7" to="9" priority="1" type="a">
        <lane id="L7_0" index="0" speed="14.00" length="391.95" shape="900.00,504.95 508.05,504.95"/>
        <lane id="L7_1" index="1" speed="14.00" length="391.95" shape="900.00,501.65 508.05,501.65"/>
    </edge>
    <edge id="L8" from="9" to="7" priority="1" type="a">
        <lane id="L8_0" index="0" speed="14.00" length="391.95" shape="508.05,495.05 900.00,495.05"/>
        <lane id="L8_1" index="1" speed="14.00" length="391.95" shape="508.05,498.35 900.00,498.35"/>
    </edge>

    <tlLogic id="9" type="static" programID="0" offset="0">
        <phase duration="31" state="GGGGrrrrGGGGrrrr"/>
        <phase duration="4" state="yyyyrrrryyyyrrrr"/>
        <phase duration="31" state="rrrrGGGGrrrrGGGG"/>
        <phase duration="4" state="rrrryyyyrrrryyyy"/>
    </tlLogic>

    <junction id="1" type="dead_end" x="0.00" y="500.00" incLanes="D1_0 D1_1" intLanes="" shape="-0.00,499.95 -0.00,493.45 0.00,506.55 0.00,500.05"/>
    <junction id="2" type="dead_end" x="500.00" y="1000.00" incLanes="D3_0 D3_1" intLanes="" shape="499.95,1000.00 493.45,1000.00 506.55,1000.00 500.05,1000.00"/>
    <junction id="3" type="dead_end" x="1000.00" y="500.00" incLanes="D7_0 D7_1" intLanes="" shape="1000.00,500.05 1000.00,506.55 1000.00,493.45 1000.00,499.95"/>
    <junction id="4" type="dead_end" x="500.00" y="0.00" incLanes="D6_0 D6_1" intLanes="" shape="500.05,-0.00 506.55,-0.00 493.45,0.00 499.95,0.00"/>
    <junction id="5" type="priority" x="100.00" y="500.00" incLanes="L2_0 L2_1 D2_0 D2_1" intLanes=":5_0_0 :5_0_1 :5_2_0 :5_2_1" shape="100.00,506.55 100.00,493.45 100.00,506.55">
        <request index="0" response="0000" foes="0000" cont="0"/>
        <request index="1" response="0000" foes="0000" cont="0"/>
        <request index="2" response="0000" foes="0000" cont="0"/>
        <request index="3" response="0000" foes="0000" cont="0"/>
    </junction>
    <junction id="6" type="priority" x="500.00" y="900.00" incLanes="D4_0 D4_1 L4_0 L4_1" intLanes=":6_0_0 :6_0_1 :6_2_0 :6_2_1" shape="493.45,900.00 506.55,900.00 493.45,900.00">
        <request index="0" response="0000" foes="0000" cont="0"/>
        <request index="1" response="0000" foes="0000" cont="0"/>
        <request index="2" response="0000" foes="0000" cont="0"/>
        <request index="3" response="0000" foes="0000" cont="0"/>
    </junction>
    <junction id="7" type="priority" x="900.00" y="500.00" incLanes="D8_0 D8_1 L8_0 L8_1" intLanes=":7_0_0 :7_0_1 :7_2_0 :7_2_1" shape="900.00,506.55 900.00,493.45 900.00,506.55">
        <request index="0" response="0000" foes="0000" cont="0"/>
        <request index="1" response="0000" foes="0000" cont="0"/>
        <request index="2" response="0000" foes="0000" cont="0"/>
        <request index="3" response="0000" foes="0000" cont="0"/>
    </junction>
    <junction id="8" type="priority" x="500.00" y="100.00" incLanes="L6_0 L6_1 D5_0 D5_1" intLanes=":8_0_0 :8_0_1 :8_2_0 :8_2_1" shape="493.45,100.00 506.55,100.00 493.45,100.00">
        <request index="0" response="0000" foes="0000" cont="0"/>
        <request index="1" response="0000" foes="0000" cont="0"/>
        <request index="2" response="0000" foes="0000" cont="0"/>
        <request index="3" response="0000" foes="0000" cont="0"/>
    </junction>
    <junction id="9" type="traffic_light" x="500.00" y="500.00" incLanes="L3_0 L3_1 L7_0 L7_1 L5_0 L5_1 L1_0 L1_1" intLanes=":9_0_0 :9_0_1 :9_2_0 :9_2_1 :9_4_0 :9_4_1 :9_6_0 :9_6_1 :9_8_0 :9_8_1 :9_10_0 :9_10_1 :9_12_0 :9_12_1 :9_14_0 :9_14_1" shape="493.45,508.05 506.55,508.05 508.05,506.55 508.05,493.45 506.55,491.95 493.45,491.95 491.95,493.45 491.95,506.55">
        <request index="0" response="0000000000000000" foes="0000000011000000" cont="0"/>
        <request index="1" response="0000000000000000" foes="0000000011000000" cont="0"/>
        <request index="2" response="0000000000000000" foes="1111000011000000" cont="0"/>
        <request index="3" response="0000000000000000" foes="1111000011000000" cont="0"/>
        <request index="4" response="0000110000000000" foes="0000110000000000" cont="0"/>
        <request index="5" response="0000110000000000" foes="0000110000000000" cont="0"/>
        <request index="6" response="0000110000001111" foes="0000110000001111" cont="0"/>
        <request index="7" response="0000110000001111" foes="0000110000001111" cont="0"/>
        <request index="8" response="0000000000000000" foes="1100000000000000" cont="0"/>
        <request index="9" response="0000000000000000" foes="1100000000000000" cont="0"/>
        <request index="10" response="0000000000000000" foes="1100000011110000" cont="0"/>
        <request index="11" response="0000000000000000" foes="1100000011110000" cont="0"/>
        <request index="12" response="0000000000001100" foes="0000000000001100" cont="0"/>
        <request index="13" response="0000000000001100" foes="0000000000001100" cont="0"/>
        <request index="14" response="0000111100001100" foes="0000111100001100" cont="0"/>
        <request index="15" response="0000111100001100" foes="0000111100001100" cont="0"/>
    </junction>

    <connection from="D2" to="L1" fromLane="0" toLane="0" via=":5_2_0" dir="s" state="M"/>
    <connection from="D2" to="L1" fromLane="1" toLane="1" via=":5_2_1" dir="s" state="M"/>
    <connection from="D4" to="L3" fromLane="0" toLane="0" via=":6_0_0" dir="s" state="M"/>
    <connection from="D4" to="L3" fromLane="1" toLane="1" via=":6_0_1" dir="s" state="M"/>
    <connection from="D5" to="L5" fromLane="0" toLane="0" via=":8_2_0" dir="s" state="M"/>
    <connection from="D5" to="L5" fromLane="1" toLane="1" via=":8_2_1" dir="s" state="M"/>
    <connection from="D8" to="L7" fromLane="0" toLane="0" via=":7_0_0" dir="s" state="M"/>
    <connection from="D8" to="L7" fromLane="1" toLane="1" via=":7_0_1" dir="s" state="M"/>
    <connection from="L1" to="L6" fromLane="0" toLane="0" via=":9_12_0" tl="9" linkIndex="12" dir="r" state="o"/>
    <connection from="L1" to="L6" fromLane="0" toLane="1" via=":9_12_1" tl="9" linkIndex="13" dir="r" state="o"/>
    <connection from="L1" to="L8" fromLane="1" toLane="0" via=":9_14_0" tl="9" linkIndex="14" dir="s" state="o"/>
    <connection from="L1" to="L8" fromLane="1" toLane="1" via=":9_14_1" tl="9" linkIndex="15" dir="s" state="o"/>
    <connection from="L2" to="D1" fromLane="0" toLane="0" via=":5_0_0" dir="s" state="M"/>
    <connection from="L2" to="D1" fromLane="1" toLane="1" via=":5_0_1" dir="s" state="M"/>
    <connection from="L3" to="L2" fromLane="0" toLane="0" via=":9_0_0" tl="9" linkIndex="0" dir="r" state="o"/>
    <connection from="L3" to="L2" fromLane="0" toLane="1" via=":9_0_1" tl="9" linkIndex="1" dir="r" state="o"/>
    <connection from="L3" to="L6" fromLane="1" toLane="0" via=":9_2_0" tl="9" linkIndex="2" dir="s" state="o"/>
    <connection from="L3" to="L6" fromLane="1" toLane="1" via=":9_2_1" tl="9" linkIndex="3" dir="s" state="o"/>
    <connection from="L4" to="D3" fromLane="0" toLane="0" via=":6_2_0" dir="s" state="M"/>
    <connection from="L4" to="D3" fromLane="1" toLane="1" via=":6_2_1" dir="s" state="M"/>
    <connection from="L5" to="L8" fromLane="0" toLane="0" via=":9_8_0" tl="9" linkIndex="8" dir="r" state="o"/>
    <connection from="L5" to="L8" fromLane="0" toLane="1" via=":9_8_1" tl="9" linkIndex="9" dir="r" state="o"/>
    <connection from="L5" to="L4" fromLane="1" toLane="0" via=":9_10_0" tl="9" linkIndex="10" dir="s" state="o"/>
    <connection from="L5" to="L4" fromLane="1" toLane="1" via=":9_10_1" tl="9" linkIndex="11" dir="s" state="o"/>
    <connection from="L6" to="D6" fromLane="0" toLane="0" via=":8_0_0" dir="s" state="M"/>
    <connection from="L6" to="D6" fromLane="1" toLane="1" via=":8_0_1" dir="s" state="M"/>
    <connection from="L7" to="L4" fromLane="0" toLane="0" via=":9_4_0" tl="9" linkIndex="4" dir="r" state="o"/>
    <connection from="L7" to="L4" fromLane="0" toLane="1" via=":9_4_1" tl="9" linkIndex="5" dir="r" state="o"/>
    <connection from="L7" to="L2" fromLane="1" toLane="0" via=":9_6_0" tl="9" linkIndex="6" dir="s" state="o"/>
    <connection from="L7" to="L2" fromLane="1" toLane="1" via=":9_6_1" tl="9" linkIndex="7" dir="s" state="o"/>
    <connection from="L8" to="D7" fromLane="0" toLane="0" via=":7_2_0" dir="s" state="M"/>
    <connection from="L8" to="D7" fromLane="1" toLane="1" via=":7_2_1" dir="s" state="M"/>

    <connection from=":5_0" to="D1" fromLane="0" toLane="0" dir="s" state="M"/>
    <connection from=":5_0" to="D1" fromLane="1" toLane="1" dir="s" state="M"/>
    <connection from=":5_2" to="L1" fromLane="0" toLane="0" dir="s" state="M"/>
    <connection from=":5_2" to="L1" fromLane="1" toLane="1" dir="s" state="M"/>
    <connection from=":6_0" to="L3" fromLane="0" toLane="0" dir="s" state="M"/>
    <connection from=":6_0" to="L3" fromLane="1" toLane="1" dir="s" state="M"/>
    <connection from=":6_2" to="D3" fromLane="0" toLane="0" dir="s" state="M"/>
    <connection from=":6_2" to="D3" fromLane="1" toLane="1" dir="s" state="M"/>
    <connection from=":7_0" to="L7" fromLane="0" toLane="0" dir="s" state="M"/>
    <connection from=":7_0" to="L7" fromLane="1" toLane="1" dir="s" state="M"/>
    <connection from=":7_2" to="D7" fromLane="0" toLane="0" dir="s" state="M"/>
    <connection from=":7_2" to="D7" fromLane="1" toLane="1" dir="s" state="M"/>
    <connection from=":8_0" to="D6" fromLane="0" toLane="0" dir="s" state="M"/>
    <connection from=":8_0" to="D6" fromLane="1" toLane="1" dir="s" state="M"/>
    <connection from=":8_2" to="L5" fromLane="0" toLane="0" dir="s" state="M"/>
    <connection from=":8_2" to="L5" fromLane="1" toLane="1" dir="s" state="M"/>
    <connection from=":9_0" to="L2" fromLane="0" toLane="0" dir="s" state="M"/>
    <connection from=":9_0" to="L2" fromLane="1" toLane="1" dir="s" state="M"/>
    <connection from=":9_2" to="L6" fromLane="0" toLane="0" dir="s" state="M"/>
    <connection from=":9_2" to="L6" fromLane="1" toLane="1" dir="s" state="M"/>
    <connection from=":9_4" to="L4" fromLane="0" toLane="0" dir="s" state="M"/>
    <connection from=":9_4" to="L4" fromLane="1" toLane="1" dir="s" state="M"/>
    <connection from=":9_6" to="L2" fromLane="0" toLane="0" dir="s" state="M"/>
    <connection from=":9_6" to="L2" fromLane="1" toLane="1" dir="s" state="M"/>
    <connection from=":9_8" to="L8" fromLane="0" toLane="0" dir="s" state="M"/>
    <connection from=":9_8" to="L8" fromLane="1" toLane="1" dir="s" state="M"/>
    <connection from=":9_10" to="L4" fromLane="0" toLane="0" dir="s" state="M"/>
    <connection from=":9_10" to="L4" fromLane="1" toLane="1" dir="s" state="M"/>
    <connection from=":9_12" to="L6" fromLane="0" toLane="0" dir="s" state="M"/>
    <connection from=":9_12" to="L6" fromLane="1" toLane="1" dir="s" state="M"/>
    <connection from=":9_14" to="L8" fromLane="0" toLane="0" dir="s" state="M"/>
    <connection from=":9_14" to="L8" fromLane="1" toLane="1" dir="s" state="M"/>

</net>
