<?xml version="1.0" encoding="UTF-8"?>
<connections xmlns:xsi="http://www.w3.org/2001/XMLSchema-instance" xsi:noNamespaceSchemaLocation="http://sumo.dlr.de/xsd/connections_file.xsd">
    <connection from="E1" to="G1b" fromLane="0" toLane="0"/>
    <connection from="E1" to="G2" fromLane="1" toLane="1"/>
    <connection from="G1" to="G2" fromLane="0" toLane="0"/>
    <connection from="G1" to="G2" fromLane="1" toLane="1"/>
    <connection from="G2b" to="G1b" fromLane="0" toLane="0"/>
    <connection from="G2b" to="G1b" fromLane="1" toLane="1"/>
    
    <connection from="G2" to="E2" fromLane="1" toLane="1"/>
    <connection from="G3b" to="E2" fromLane="0" toLane="0"/>
    <connection from="G2" to="G3" fromLane="0" toLane="0"/>
    <connection from="G2" to="G3" fromLane="1" toLane="1"/>
    <connection from="G3b" to="G2b" fromLane="0" toLane="0"/>
    <connection from="G3b" to="G2b" fromLane="1" toLane="1"/>
    <connection from="G3" to="G4" fromLane="0" toLane="0"/>
    <connection from="G3" to="G4" fromLane="1" toLane="1"/>
    <connection from="G4b" to="G3b" fromLane="0" toLane="0"/>
    <connection from="G4b" to="G3b" fromLane="1" toLane="1"/>
    
    <connection from="G3" to="M1" fromLane="0" toLane="0"/>
    <connection from="G3" to="G4" fromLane="0" toLane="0"/>
    <connection from="G3" to="G4" fromLane="1" toLane="1"/>
    <connection from="G4" to="G5b" fromLane="0" toLane="0"/>
    <connection from="G4" to="G5b" fromLane="1" toLane="1"/>
    <connection from="G5" to="G4b" fromLane="0" toLane="0"/>
    <connection from="G5" to="G4b" fromLane="1" toLane="1"/>
    
    <connection from="G4" to="N2" fromLane="0" toLane="0"/>
    <connection from="G4" to="N1b" fromLane="1" toLane="1"/>
    <connection from="G5" to="N2" fromLane="1" toLane="1"/>
    <connection from="G5" to="N1b" fromLane="0" toLane="0"/>
    
    <connection from="M1" to="N3" fromLane="0" toLane="0"/>
    
    <connection from="N1" to="G4b" fromLane="0" toLane="0"/>
    <connection from="N2b" to="G4b" fromLane="1" toLane="1"/>
    <connection from="N2b" to="G5b" fromLane="0" toLane="0"/>
    
    <connection from="N1" to="N2" fromLane="0" toLane="0"/>
    <connection from="N1" to="N2" fromLane="1" toLane="1"/>
    <connection from="N2b" to="N1b" fromLane="0" toLane="0"/>
    <connection from="N2b" to="N1b" fromLane="1" toLane="1"/>
    
    <connection from="N2" to="N3" fromLane="0" toLane="0"/>
    <connection from="N2" to="N3" fromLane="1" toLane="1"/>
    <connection from="N3b" to="N2b" fromLane="0" toLane="0"/>
    <connection from="N3b" to="N2b" fromLane="1" toLane="1"/>
    
    <connection from="N3" to="N4" fromLane="0" toLane="0"/>
    <connection from="N3" to="N4" fromLane="1" toLane="1"/>
    <connection from="N4b" to="N3b" fromLane="0" toLane="0"/>
    <connection from="N4b" to="N3b" fromLane="1" toLane="1"/>
    
    <connection from="N3" to="E3" fromLane="0" toLane="0"/>
    <connection from="N4b" to="E3" fromLane="1" toLane="1"/>
</connections>
