<?xml version="1.0" encoding="UTF-8"?>
<connections>
	
	<connection from="14to1" to="1to17" fromLane="0" toLane="0"/>
	<connection from="14to1" to="1to15" fromLane="1" toLane="0"/><!--<connection from="14to1" to="1to15" fromLane="1" toLane="0"/>-->
	<connection from="14to1" to="1to15" fromLane="2" toLane="1"/>
	<connection from="14to1" to="1to4" fromLane="3" toLane="1"/>
	<connection from="14to1" to="1to4" fromLane="4" toLane="2"/>
	
	<connection from="4to1" to="1to14" fromLane="0" toLane="0"/>
	<connection from="4to1" to="1to17" fromLane="1" toLane="1"/>
	<connection from="4to1" to="1to15" fromLane="2" toLane="1"/>
	
	
	<connection from="15to1" to="1to14" fromLane="1" toLane="0"/>
	<connection from="15to1" to="1to14" fromLane="2" toLane="1"/>
	<connection from="15to1" to="1to17" fromLane="3" toLane="1"/>
	<connection from="15to1" to="1to4" fromLane="0" toLane="0"/>
	
	<connection from="17to1" to="1to14" fromLane="3" toLane="1"/>
	<connection from="17to1" to="1to4" fromLane="1" toLane="1"/>
	<connection from="17to1" to="1to4" fromLane="2" toLane="2"/>
	<connection from="17to1" to="1to15" fromLane="0" toLane="0"/>
	

</connections>