<?xml version="1.0" encoding="UTF-8"?>

<!-- generated on 06/04/16 10:18:59 by SUMO netconvert Version 0.24.0
<?xml version="1.0" encoding="UTF-8"?>

<configuration xmlns:xsi="http://www.w3.org/2001/XMLSchema-instance" xsi:noNamespaceSchemaLocation="http://sumo.dlr.de/xsd/netconvertConfiguration.xsd">

    <input>
        <node-files value="huntingtonColorado.nod.xml"/>
        <edge-files value="huntingtonColorado.edg.xml"/>
        <connection-files value="huntingtonColorado.con.xml"/>
        <tllogic-files value="huntingtonColorado.add.xml"/>
        <type-files value="huntingtonColorado.typ.xml"/>
    </input>

    <output>
        <output-file value="huntingtonColorado.net.xml"/>
    </output>

    <processing>
        <no-turnarounds value="true"/>
    </processing>

</configuration>
-->

<net version="0.13" xmlns:xsi="http://www.w3.org/2001/XMLSchema-instance" xsi:noNamespaceSchemaLocation="http://sumo.dlr.de/xsd/net_file.xsd">

    <location netOffset="400.00,1036.10" convBoundary="0.00,0.00,5137.70,1366.91" origBoundary="-400.00,-1036.10,4737.70,330.81" projParameter="!"/>

    <type id="a" priority="3" numLanes="1" speed="14.00"/>
    <type id="b" priority="3" numLanes="2" speed="14.00"/>
    <type id="c" priority="3" numLanes="3" speed="14.00"/>
    <type id="d" priority="3" numLanes="4" speed="14.00"/>
    <type id="e" priority="3" numLanes="5" speed="14.00"/>

    <edge id=":1_0" function="internal">
        <lane id=":1_0_0" index="0" speed="14.00" length="18.07" shape="199.56,1025.99 198.79,1019.21 197.58,1014.22 195.92,1011.03 193.83,1009.64"/>
    </edge>
    <edge id=":1_1" function="internal">
        <lane id=":1_1_0" index="0" speed="14.00" length="38.34" shape="202.86,1025.75 202.70,1014.87 203.40,1004.76 204.28,995.58 204.68,987.49"/>
    </edge>
    <edge id=":1_2" function="internal">
        <lane id=":1_2_0" index="0" speed="14.00" length="11.33" shape="206.15,1025.52 206.60,1016.87 207.80,1014.48"/>
    </edge>
    <edge id=":1_16" function="internal">
        <lane id=":1_16_0" index="0" speed="14.00" length="16.99" shape="207.80,1014.48 209.43,1011.25 214.62,1008.65 222.17,1009.07"/>
    </edge>
    <edge id=":1_3" function="internal">
        <lane id=":1_3_0" index="0" speed="14.00" length="5.39" shape="219.32,1021.96 217.78,1021.85 216.72,1022.28 216.13,1023.27 216.02,1024.81"/>
    </edge>
    <edge id=":1_4" function="internal">
        <lane id=":1_4_0" index="0" speed="14.00" length="27.80" shape="220.03,1018.74 211.60,1016.35 205.52,1013.85 200.14,1011.53 193.83,1009.64"/>
        <lane id=":1_4_1" index="1" speed="14.00" length="27.80" shape="220.75,1015.52 212.30,1013.13 206.22,1010.63 200.84,1008.30 194.52,1006.41"/>
    </edge>
    <edge id=":1_6" function="internal">
        <lane id=":1_6_0" index="0" speed="14.00" length="15.70" shape="221.46,1012.30 214.19,1009.37 208.96,1004.26 208.74,1003.75"/>
    </edge>
    <edge id=":1_17" function="internal">
        <lane id=":1_17_0" index="0" speed="14.00" length="16.94" shape="208.74,1003.75 205.80,996.97 204.68,987.49"/>
    </edge>
    <edge id=":1_7" function="internal">
        <lane id=":1_7_0" index="0" speed="14.00" length="19.97" shape="217.88,987.37 218.25,995.06 219.20,1000.70 220.75,1004.29 222.88,1005.85"/>
    </edge>
    <edge id=":1_8" function="internal">
        <lane id=":1_8_0" index="0" speed="14.00" length="37.83" shape="214.58,987.40 214.21,999.13 213.31,1007.68 212.59,1015.50 212.73,1025.05"/>
        <lane id=":1_8_1" index="1" speed="14.00" length="37.83" shape="211.28,987.43 210.91,999.24 210.02,1007.85 209.30,1015.72 209.44,1025.28"/>
    </edge>
    <edge id=":1_10" function="internal">
        <lane id=":1_10_0" index="0" speed="14.00" length="14.57" shape="207.98,987.46 207.21,996.85 205.31,1001.64"/>
    </edge>
    <edge id=":1_18" function="internal">
        <lane id=":1_18_0" index="0" speed="14.00" length="12.87" shape="205.31,1001.64 204.71,1003.14 200.48,1006.33 194.52,1006.41"/>
    </edge>
    <edge id=":1_11" function="internal">
        <lane id=":1_11_0" index="0" speed="14.00" length="5.29" shape="197.99,990.28 199.48,990.38 200.55,989.96 201.18,989.00 201.38,987.52"/>
    </edge>
    <edge id=":1_12" function="internal">
        <lane id=":1_12_0" index="0" speed="14.00" length="28.59" shape="197.30,993.51 205.78,996.39 211.63,999.99 216.72,1003.43 222.88,1005.85"/>
        <lane id=":1_12_1" index="1" speed="14.00" length="28.59" shape="196.60,996.73 205.08,999.62 210.93,1003.21 216.01,1006.65 222.17,1009.07"/>
    </edge>
    <edge id=":1_14" function="internal">
        <lane id=":1_14_0" index="0" speed="14.00" length="12.64" shape="195.91,999.96 202.68,1002.76 207.75,1007.87 208.66,1009.90"/>
        <lane id=":1_14_1" index="1" speed="14.00" length="12.64" shape="195.21,1003.18 200.92,1005.60 202.52,1007.29"/>
    </edge>
    <edge id=":1_19" function="internal">
        <lane id=":1_19_0" index="0" speed="14.00" length="15.80" shape="208.66,1009.90 211.09,1015.30 212.73,1025.05"/>
    </edge>
    <edge id=":1_20" function="internal">
        <lane id=":1_20_0" index="0" speed="14.00" length="19.76" shape="202.52,1007.29 205.19,1010.09 208.03,1016.65 209.44,1025.28"/>
    </edge>
    <edge id=":10_0" function="internal">
        <lane id=":10_0_0" index="0" speed="14.00" length="2.77" shape="270.68,1142.48 270.63,1142.13 270.52,1141.82 270.33,1141.54 270.09,1141.30"/>
        <lane id=":10_0_1" index="1" speed="14.00" length="2.77" shape="273.98,1142.33 273.83,1141.28 273.47,1140.32 272.92,1139.47 272.15,1138.73"/>
    </edge>
    <edge id=":11_0" function="internal">
        <lane id=":11_0_0" index="0" speed="14.00" length="2.94" shape="270.76,1158.62 271.02,1158.35 271.20,1158.05 271.30,1157.71 271.32,1157.34"/>
        <lane id=":11_0_1" index="1" speed="14.00" length="2.94" shape="272.92,1161.12 273.70,1160.29 274.24,1159.37 274.55,1158.33 274.62,1157.20"/>
    </edge>
    <edge id=":12_0" function="internal">
        <lane id=":12_0_0" index="0" speed="14.00" length="2.97" shape="254.84,1171.51 255.21,1171.55 255.57,1171.50 255.90,1171.37 256.20,1171.15"/>
        <lane id=":12_0_1" index="1" speed="14.00" length="2.97" shape="254.18,1174.74 255.33,1174.85 256.40,1174.71 257.41,1174.31 258.36,1173.65"/>
    </edge>
    <edge id=":13_0" function="internal">
        <lane id=":13_0_0" index="0" speed="14.00" length="1.63" shape="236.83,1167.64 237.55,1167.99"/>
        <lane id=":13_0_1" index="1" speed="14.00" length="1.63" shape="234.68,1170.15 236.89,1171.22"/>
    </edge>
    <edge id=":14_0" function="internal">
        <lane id=":14_0_0" index="0" speed="14.00" length="7.43" shape="182.04,1007.10 174.63,1003.96"/>
        <lane id=":14_0_1" index="1" speed="14.00" length="7.43" shape="182.73,1003.88 176.46,1001.22"/>
    </edge>
    <edge id=":14_2" function="internal">
        <lane id=":14_2_0" index="0" speed="14.00" length="3.09" shape="185.65,987.51 186.20,987.74"/>
        <lane id=":14_2_1" index="1" speed="14.00" length="3.09" shape="183.81,990.25 185.51,990.97"/>
        <lane id=":14_2_2" index="2" speed="14.00" length="3.09" shape="181.97,992.99 184.82,994.20"/>
        <lane id=":14_2_3" index="3" speed="14.00" length="3.09" shape="180.14,995.73 184.12,997.42"/>
        <lane id=":14_2_4" index="4" speed="14.00" length="3.09" shape="178.30,998.48 183.43,1000.65"/>
    </edge>
    <edge id=":15_0" function="internal">
        <lane id=":15_0_0" index="0" speed="14.00" length="0.35" shape="232.25,1024.82 232.16,1024.80"/>
        <lane id=":15_0_1" index="1" speed="14.00" length="0.35" shape="233.13,1021.64 232.88,1021.58"/>
        <lane id=":15_0_2" index="2" speed="14.00" length="0.35" shape="234.01,1018.46 233.59,1018.36"/>
        <lane id=":15_0_3" index="3" speed="14.00" length="0.35" shape="234.90,1015.28 234.30,1015.14"/>
    </edge>
    <edge id=":15_4" function="internal">
        <lane id=":15_4_0" index="0" speed="14.00" length="0.88" shape="235.73,1008.69 236.66,1008.92"/>
        <lane id=":15_4_1" index="1" speed="14.00" length="0.88" shape="235.01,1011.91 235.78,1012.10"/>
    </edge>
    <edge id=":16_0" function="internal">
        <lane id=":16_0_0" index="0" speed="14.00" length="1.30" shape="216.40,1030.08 216.44,1031.67"/>
        <lane id=":16_0_1" index="1" speed="14.00" length="1.30" shape="213.11,1030.32 213.14,1031.61"/>
        <lane id=":16_0_2" index="2" speed="14.00" length="1.30" shape="209.82,1030.55 209.84,1031.56"/>
    </edge>
    <edge id=":16_3" function="internal">
        <lane id=":16_3_0" index="0" speed="14.00" length="0.43" shape="199.94,1031.40 199.94,1031.26"/>
        <lane id=":16_3_1" index="1" speed="14.00" length="0.43" shape="203.24,1031.45 203.23,1031.02"/>
        <lane id=":16_3_2" index="2" speed="14.00" length="0.43" shape="206.54,1031.50 206.52,1030.79"/>
    </edge>
    <edge id=":17_0" function="internal">
        <lane id=":17_0_0" index="0" speed="14.00" length="0.10" shape="201.35,984.14 201.35,984.04"/>
        <lane id=":17_0_1" index="1" speed="14.00" length="0.10" shape="204.65,984.11 204.65,984.08"/>
    </edge>
    <edge id=":17_2" function="internal">
        <lane id=":17_2_0" index="0" speed="14.00" length="0.13" shape="217.85,984.02 217.85,984.21"/>
        <lane id=":17_2_1" index="1" speed="14.00" length="0.13" shape="214.55,984.05 214.55,984.17"/>
        <lane id=":17_2_2" index="2" speed="14.00" length="0.13" shape="211.25,984.16 211.25,984.06"/>
        <lane id=":17_2_3" index="3" speed="14.00" length="0.13" shape="207.95,984.12 207.95,984.09"/>
    </edge>
    <edge id=":18_0" function="internal">
        <lane id=":18_0_0" index="0" speed="14.00" length="0.10" shape="1700.34,1052.15 1700.36,1052.15"/>
        <lane id=":18_0_1" index="1" speed="14.00" length="0.10" shape="1700.38,1048.85 1700.39,1048.85"/>
    </edge>
    <edge id=":18_2" function="internal">
        <lane id=":18_2_0" index="0" speed="14.00" length="0.10" shape="1700.46,1042.25 1700.46,1042.25"/>
        <lane id=":18_2_1" index="1" speed="14.00" length="0.10" shape="1700.42,1045.55 1700.42,1045.55"/>
    </edge>
    <edge id=":19_0" function="internal">
        <lane id=":19_0_0" index="0" speed="14.00" length="10.22" shape="1790.51,1056.61 1787.62,1056.06 1785.79,1054.90 1783.96,1053.74 1781.07,1053.18"/>
        <lane id=":19_0_1" index="1" speed="14.00" length="10.22" shape="1790.56,1053.31 1787.67,1052.76 1785.83,1051.60 1784.00,1050.44 1781.11,1049.88"/>
    </edge>
    <edge id=":19_2" function="internal">
        <lane id=":19_2_0" index="0" speed="14.00" length="4.32" shape="1790.61,1050.01 1787.96,1049.36 1786.81,1048.26"/>
    </edge>
    <edge id=":19_8" function="internal">
        <lane id=":19_8_0" index="0" speed="14.00" length="8.72" shape="1786.81,1048.26 1786.02,1047.50 1784.79,1044.43 1784.26,1040.15"/>
    </edge>
    <edge id=":19_3" function="internal">
        <lane id=":19_3_0" index="0" speed="14.00" length="5.20" shape="1787.56,1040.03 1787.80,1041.49 1788.40,1042.55 1789.37,1043.19 1790.70,1043.41"/>
    </edge>
    <edge id=":19_4" function="internal">
        <lane id=":19_4_0" index="0" speed="14.00" length="13.42" shape="1787.56,1040.03 1787.29,1044.38 1786.12,1047.47 1784.06,1049.30 1781.11,1049.88"/>
    </edge>
    <edge id=":19_5" function="internal">
        <lane id=":19_5_0" index="0" speed="14.00" length="5.06" shape="1781.19,1043.29 1782.58,1043.10 1783.55,1042.52 1784.11,1041.54 1784.26,1040.15"/>
    </edge>
    <edge id=":19_6" function="internal">
        <lane id=":19_6_0" index="0" speed="14.00" length="9.50" shape="1781.19,1043.29 1790.70,1043.41"/>
        <lane id=":19_6_1" index="1" speed="14.00" length="9.50" shape="1781.15,1046.59 1790.65,1046.71"/>
    </edge>
    <edge id=":21_0" function="internal">
        <lane id=":21_0_0" index="0" speed="14.00" length="9.84" shape="1869.18,1057.68 1859.56,1057.58"/>
        <lane id=":21_0_1" index="1" speed="14.00" length="9.84" shape="1869.20,1054.38 1859.61,1054.28"/>
        <lane id=":21_0_2" index="2" speed="14.00" length="9.84" shape="1869.20,1054.38 1866.28,1053.84 1864.43,1052.69 1862.57,1051.54 1859.65,1050.98"/>
    </edge>
    <edge id=":21_3" function="internal">
        <lane id=":21_3_0" index="0" speed="14.00" length="4.45" shape="1869.22,1051.08 1866.48,1050.45 1865.28,1049.34"/>
    </edge>
    <edge id=":21_10" function="internal">
        <lane id=":21_10_0" index="0" speed="14.00" length="8.65" shape="1865.28,1049.34 1864.50,1048.61 1863.29,1045.55 1862.85,1041.28"/>
    </edge>
    <edge id=":21_4" function="internal">
        <lane id=":21_4_0" index="0" speed="14.00" length="5.10" shape="1866.15,1041.24 1866.36,1042.65 1866.95,1043.66 1867.91,1044.27 1869.26,1044.48"/>
    </edge>
    <edge id=":21_5" function="internal">
        <lane id=":21_5_0" index="0" speed="14.00" length="14.75" shape="1866.15,1041.24 1865.80,1046.98 1864.59,1051.07 1862.53,1053.50 1859.61,1054.28"/>
        <lane id=":21_5_1" index="1" speed="14.00" length="14.75" shape="1866.15,1041.24 1865.79,1045.54 1864.59,1048.59 1862.54,1050.41 1859.65,1050.98"/>
    </edge>
    <edge id=":21_7" function="internal">
        <lane id=":21_7_0" index="0" speed="14.00" length="5.03" shape="1859.75,1044.38 1861.12,1044.20 1862.09,1043.63 1862.67,1042.66 1862.85,1041.28"/>
    </edge>
    <edge id=":21_8" function="internal">
        <lane id=":21_8_0" index="0" speed="14.00" length="9.53" shape="1859.75,1044.38 1869.26,1044.48"/>
        <lane id=":21_8_1" index="1" speed="14.00" length="9.53" shape="1859.70,1047.68 1869.24,1047.78"/>
    </edge>
    <edge id=":23_0" function="internal">
        <lane id=":23_0_0" index="0" speed="14.00" length="3.97" shape="2044.97,1055.46 2041.95,1058.74"/>
        <lane id=":23_0_1" index="1" speed="14.00" length="3.97" shape="2044.99,1052.16 2041.97,1055.44"/>
        <lane id=":23_0_2" index="2" speed="14.00" length="3.97" shape="2044.99,1052.16 2041.99,1052.14"/>
    </edge>
    <edge id=":23_3" function="internal">
        <lane id=":23_3_0" index="0" speed="14.00" length="3.00" shape="2042.03,1045.54 2045.03,1045.56"/>
        <lane id=":23_3_1" index="1" speed="14.00" length="3.00" shape="2042.01,1048.84 2045.01,1048.86"/>
    </edge>
    <edge id=":24_0" function="internal">
        <lane id=":24_0_0" index="0" speed="14.00" length="0.10" shape="2246.40,1056.55 2246.37,1056.55"/>
        <lane id=":24_0_1" index="1" speed="14.00" length="0.10" shape="2246.40,1053.25 2246.39,1053.25"/>
    </edge>
    <edge id=":24_2" function="internal">
        <lane id=":24_2_0" index="0" speed="14.00" length="0.10" shape="2246.43,1046.65 2246.40,1046.65"/>
        <lane id=":24_2_1" index="1" speed="14.00" length="0.10" shape="2246.41,1049.95 2246.40,1049.95"/>
    </edge>
    <edge id=":25_0" function="internal">
        <lane id=":25_0_0" index="0" speed="14.00" length="3.04" shape="2338.28,1056.00 2334.78,1056.55"/>
        <lane id=":25_0_1" index="1" speed="14.00" length="3.04" shape="2337.28,1052.86 2334.78,1053.25"/>
    </edge>
    <edge id=":25_2" function="internal">
        <lane id=":25_2_0" index="0" speed="14.00" length="1.00" shape="2334.78,1046.65 2335.27,1046.57"/>
        <lane id=":25_2_1" index="1" speed="14.00" length="1.00" shape="2334.78,1049.95 2336.27,1049.72"/>
    </edge>
    <edge id=":26_0" function="internal">
        <lane id=":26_0_0" index="0" speed="14.00" length="2.99" shape="2412.37,1031.77 2409.25,1033.32"/>
        <lane id=":26_0_1" index="1" speed="14.00" length="2.99" shape="2410.47,1029.07 2408.25,1030.18"/>
    </edge>
    <edge id=":26_2" function="internal">
        <lane id=":26_2_0" index="0" speed="14.00" length="0.99" shape="2406.24,1023.89 2406.67,1023.67"/>
        <lane id=":26_2_1" index="1" speed="14.00" length="0.99" shape="2407.24,1027.03 2408.57,1026.37"/>
    </edge>
    <edge id=":27_0" function="internal">
        <lane id=":27_0_0" index="0" speed="14.00" length="2.28" shape="2466.41,993.31 2464.43,995.09"/>
        <lane id=":27_0_1" index="1" speed="14.00" length="2.28" shape="2463.94,991.12 2462.53,992.39"/>
    </edge>
    <edge id=":27_2" function="internal">
        <lane id=":27_2_0" index="0" speed="14.00" length="0.75" shape="2458.72,986.99 2459.00,986.75"/>
        <lane id=":27_2_1" index="1" speed="14.00" length="0.75" shape="2460.63,989.69 2461.47,988.93"/>
    </edge>
    <edge id=":28_0" function="internal">
        <lane id=":28_0_0" index="0" speed="14.00" length="2.29" shape="2496.42,958.97 2494.90,961.16"/>
        <lane id=":28_0_1" index="1" speed="14.00" length="2.29" shape="2493.52,957.41 2492.43,958.97"/>
    </edge>
    <edge id=":28_2" function="internal">
        <lane id=":28_2_0" index="0" speed="14.00" length="0.75" shape="2487.49,954.59 2487.70,954.29"/>
        <lane id=":28_2_1" index="1" speed="14.00" length="0.75" shape="2489.96,956.78 2490.61,955.85"/>
    </edge>
    <edge id=":29_0" function="internal">
        <lane id=":29_0_0" index="0" speed="14.00" length="0.13" shape="2591.00,793.46 2590.91,793.60"/>
        <lane id=":29_0_1" index="1" speed="14.00" length="0.13" shape="2588.11,791.86 2588.13,791.83"/>
    </edge>
    <edge id=":29_2" function="internal">
        <lane id=":29_2_0" index="0" speed="14.00" length="0.11" shape="2579.58,786.83 2579.64,786.73"/>
        <lane id=":29_2_1" index="1" speed="14.00" length="0.11" shape="2582.46,788.45 2582.46,788.45"/>
        <lane id=":29_2_2" index="2" speed="14.00" length="0.11" shape="2585.28,790.17 2585.28,790.17"/>
    </edge>
    <edge id=":30_0" function="internal">
        <lane id=":30_0_0" index="0" speed="14.00" length="16.56" shape="2624.79,761.20 2618.21,761.86 2613.33,762.61 2610.17,763.46 2608.71,764.40"/>
    </edge>
    <edge id=":30_1" function="internal">
        <lane id=":30_1_0" index="0" speed="14.00" length="26.26" shape="2624.52,757.91 2616.14,757.62 2611.42,755.06 2610.34,750.22 2612.91,743.12"/>
    </edge>
    <edge id=":30_2" function="internal">
        <lane id=":30_2_0" index="0" speed="14.00" length="8.01" shape="2621.64,747.79 2621.01,749.48 2621.18,750.63 2622.17,751.25 2623.97,751.33"/>
        <lane id=":30_2_1" index="1" speed="14.00" length="8.01" shape="2621.64,747.79 2620.33,750.98 2620.33,753.18 2621.63,754.40 2624.25,754.62"/>
    </edge>
    <edge id=":30_4" function="internal">
        <lane id=":30_4_0" index="0" speed="14.00" length="20.66" shape="2618.73,746.23 2615.84,751.73 2613.84,755.55 2611.79,759.25 2608.71,764.40"/>
        <lane id=":30_4_1" index="1" speed="14.00" length="20.66" shape="2615.82,744.68 2612.96,750.12 2610.99,753.88 2608.96,757.54 2605.89,762.68"/>
    </edge>
    <edge id=":30_6" function="internal">
        <lane id=":30_6_0" index="0" speed="14.00" length="20.48" shape="2597.44,757.53 2600.97,752.62 2603.94,749.61 2606.79,746.57 2610.00,741.57"/>
        <lane id=":30_6_1" index="1" speed="14.00" length="20.48" shape="2600.26,759.25 2603.82,754.28 2606.82,751.21 2609.70,748.14 2612.91,743.12"/>
    </edge>
    <edge id=":30_8" function="internal">
        <lane id=":30_8_0" index="0" speed="14.00" length="5.64" shape="2603.08,760.97 2606.29,757.24 2607.84,756.27"/>
        <lane id=":30_8_1" index="1" speed="14.00" length="5.64" shape="2603.08,760.97 2605.51,758.75 2606.66,758.28"/>
    </edge>
    <edge id=":30_10" function="internal">
        <lane id=":30_10_0" index="0" speed="14.00" length="17.08" shape="2607.84,756.27 2610.84,754.39 2616.74,752.43 2623.97,751.33"/>
    </edge>
    <edge id=":30_11" function="internal">
        <lane id=":30_11_0" index="0" speed="14.00" length="18.05" shape="2606.66,758.28 2609.84,756.96 2616.09,755.58 2624.25,754.62"/>
    </edge>
    <edge id=":31_0" function="internal">
        <lane id=":31_0_0" index="0" speed="14.00" length="0.22" shape="2630.89,730.48 2630.72,730.79"/>
        <lane id=":31_0_1" index="1" speed="14.00" length="0.22" shape="2627.97,728.93 2627.87,729.12"/>
        <lane id=":31_0_2" index="2" speed="14.00" length="0.22" shape="2625.02,727.44 2625.06,727.38"/>
    </edge>
    <edge id=":31_3" function="internal">
        <lane id=":31_3_0" index="0" speed="14.00" length="0.14" shape="2619.24,724.26 2619.33,724.10"/>
        <lane id=":31_3_1" index="1" speed="14.00" length="0.14" shape="2622.17,725.77 2622.17,725.77"/>
    </edge>
    <edge id=":32_0" function="internal">
        <lane id=":32_0_0" index="0" speed="14.00" length="3.31" shape="2636.74,759.57 2632.99,760.52"/>
        <lane id=":32_0_1" index="1" speed="14.00" length="3.31" shape="2635.39,756.55 2632.72,757.24"/>
    </edge>
    <edge id=":32_2" function="internal">
        <lane id=":32_2_0" index="0" speed="14.00" length="1.09" shape="2632.18,750.66 2632.70,750.52"/>
        <lane id=":32_2_1" index="1" speed="14.00" length="1.09" shape="2632.45,753.95 2634.05,753.54"/>
    </edge>
    <edge id=":34_0" function="internal">
        <lane id=":34_0_0" index="0" speed="14.00" length="3.98" shape="2661.83,671.31 2663.15,675.57"/>
        <lane id=":34_0_1" index="1" speed="14.00" length="3.98" shape="2658.98,669.64 2660.31,673.90"/>
        <lane id=":34_0_2" index="2" speed="14.00" length="3.98" shape="2658.98,669.64 2657.46,672.23"/>
    </edge>
    <edge id=":34_3" function="internal">
        <lane id=":34_3_0" index="0" speed="14.00" length="3.00" shape="2651.77,668.89 2653.29,666.30"/>
        <lane id=":34_3_1" index="1" speed="14.00" length="3.00" shape="2654.62,670.56 2656.13,667.97"/>
    </edge>
    <edge id=":35_0" function="internal">
        <lane id=":35_0_0" index="0" speed="14.00" length="0.12" shape="2881.48,296.49 2881.41,296.61"/>
        <lane id=":35_0_1" index="1" speed="14.00" length="0.12" shape="2878.60,294.87 2878.62,294.83"/>
    </edge>
    <edge id=":35_2" function="internal">
        <lane id=":35_2_0" index="0" speed="14.00" length="0.10" shape="2872.98,291.41 2872.98,291.41"/>
        <lane id=":35_2_1" index="1" speed="14.00" length="0.10" shape="2875.79,293.14 2875.79,293.14"/>
    </edge>
    <edge id=":36_0" function="internal">
        <lane id=":36_0_0" index="0" speed="14.00" length="0.32" shape="2918.24,236.84 2918.15,236.97"/>
        <lane id=":36_0_1" index="1" speed="14.00" length="0.32" shape="2915.61,234.84 2915.34,235.24"/>
    </edge>
    <edge id=":36_2" function="internal">
        <lane id=":36_2_0" index="0" speed="14.00" length="0.96" shape="2909.72,231.77 2910.35,230.85"/>
        <lane id=":36_2_1" index="1" speed="14.00" length="0.96" shape="2912.53,233.51 2912.98,232.85"/>
    </edge>
    <edge id=":37_0" function="internal">
        <lane id=":37_0_0" index="0" speed="14.00" length="0.89" shape="2956.51,186.51 2956.19,186.82"/>
        <lane id=":37_0_1" index="1" speed="14.00" length="0.89" shape="2954.52,183.87 2953.56,184.82"/>
    </edge>
    <edge id=":37_2" function="internal">
        <lane id=":37_2_0" index="0" speed="14.00" length="2.71" shape="2948.31,180.83 2950.55,178.60"/>
        <lane id=":37_2_1" index="1" speed="14.00" length="2.71" shape="2950.94,182.83 2952.53,181.23"/>
    </edge>
    <edge id=":38_0" function="internal">
        <lane id=":38_0_0" index="0" speed="14.00" length="4.09" shape="2996.48,157.16 2993.35,158.75"/>
        <lane id=":38_0_1" index="1" speed="14.00" length="4.09" shape="2995.52,154.00 2991.37,156.12"/>
    </edge>
    <edge id=":38_2" function="internal">
        <lane id=":38_2_0" index="0" speed="14.00" length="7.06" shape="2987.40,150.85 2992.64,144.53"/>
        <lane id=":38_2_1" index="1" speed="14.00" length="7.06" shape="2989.38,153.48 2993.60,147.69"/>
        <lane id=":38_2_2" index="2" speed="14.00" length="7.06" shape="2989.38,153.48 2994.56,150.85"/>
    </edge>
    <edge id=":39_0" function="internal">
        <lane id=":39_0_0" index="0" speed="14.00" length="2.81" shape="2515.12,924.21 2513.78,926.61"/>
        <lane id=":39_0_1" index="1" speed="14.00" length="2.81" shape="2512.27,922.55 2510.87,925.05"/>
    </edge>
    <edge id=":39_2" function="internal">
        <lane id=":39_2_0" index="0" speed="14.00" length="4.00" shape="2505.06,921.93 2503.70,917.59"/>
        <lane id=":39_2_1" index="1" speed="14.00" length="4.00" shape="2507.96,923.49 2506.56,919.24"/>
        <lane id=":39_2_2" index="2" speed="14.00" length="4.00" shape="2507.96,923.49 2509.41,920.90"/>
    </edge>
    <edge id=":4_0" function="internal">
        <lane id=":4_0_0" index="0" speed="14.00" length="9.71" shape="214.58,1146.37 214.91,1147.65 215.93,1149.24 217.65,1151.14 220.07,1153.34"/>
        <lane id=":4_0_1" index="1" speed="14.00" length="9.71" shape="214.58,1146.37 214.75,1149.41 215.36,1152.01 216.42,1154.15 217.93,1155.85"/>
    </edge>
    <edge id=":4_2" function="internal">
        <lane id=":4_2_0" index="0" speed="14.00" length="11.04" shape="214.58,1146.37 214.50,1149.68 214.40,1151.94 214.26,1154.21 214.07,1157.51"/>
        <lane id=":4_2_1" index="1" speed="14.00" length="11.04" shape="211.28,1146.32 211.20,1149.59 211.10,1151.83 210.96,1154.07 210.78,1157.34"/>
        <lane id=":4_2_2" index="2" speed="14.00" length="11.04" shape="207.98,1146.26 207.90,1149.50 207.80,1151.72 207.67,1153.94 207.48,1157.17"/>
    </edge>
    <edge id=":4_5" function="internal">
        <lane id=":4_5_0" index="0" speed="14.00" length="10.69" shape="197.60,1156.66 197.78,1153.53 197.91,1151.38 198.01,1149.24 198.08,1146.10"/>
        <lane id=":4_5_1" index="1" speed="14.00" length="10.69" shape="200.89,1156.83 201.07,1153.66 201.21,1151.50 201.31,1149.33 201.38,1146.16"/>
        <lane id=":4_5_2" index="2" speed="14.00" length="10.69" shape="204.19,1157.00 204.37,1153.80 204.51,1151.61 204.61,1149.42 204.68,1146.21"/>
    </edge>
    <edge id=":40_0" function="internal">
        <lane id=":40_0_0" index="0" speed="14.00" length="12.16" shape="3069.38,135.85 3065.95,136.01 3063.64,136.50 3061.37,137.31 3058.08,138.42"/>
        <lane id=":40_0_1" index="1" speed="14.00" length="12.16" shape="3069.38,132.55 3065.66,132.72 3063.15,133.22 3060.69,134.07 3057.12,135.27"/>
    </edge>
    <edge id=":40_2" function="internal">
        <lane id=":40_2_0" index="0" speed="14.00" length="18.26" shape="3069.38,132.55 3064.35,131.29 3061.66,128.30 3059.05,124.75 3054.30,121.83"/>
        <lane id=":40_2_1" index="1" speed="14.00" length="18.26" shape="3069.38,129.25 3064.65,128.00 3062.19,125.03 3059.82,121.53 3055.35,118.70"/>
        <lane id=":40_2_2" index="2" speed="14.00" length="18.26" shape="3069.38,125.95 3064.95,124.70 3062.73,121.76 3060.58,118.32 3056.40,115.58"/>
    </edge>
    <edge id=":40_5" function="internal">
        <lane id=":40_5_0" index="0" speed="14.00" length="13.57" shape="3054.24,125.79 3056.57,124.84 3057.36,123.86 3056.60,122.86 3054.30,121.83"/>
        <lane id=":40_5_1" index="1" speed="14.00" length="13.57" shape="3054.24,125.79 3058.68,124.02 3060.34,122.25 3059.23,120.48 3055.35,118.70"/>
        <lane id=":40_5_2" index="2" speed="14.00" length="13.57" shape="3054.24,125.79 3060.78,123.21 3063.32,120.64 3061.86,118.10 3056.40,115.58"/>
    </edge>
    <edge id=":40_8" function="internal">
        <lane id=":40_8_0" index="0" speed="14.00" length="17.30" shape="3055.20,128.95 3059.67,126.40 3062.15,123.22 3064.70,120.50 3069.38,119.35"/>
        <lane id=":40_8_1" index="1" speed="14.00" length="17.30" shape="3056.16,132.11 3060.36,129.63 3062.64,126.49 3064.98,123.80 3069.38,122.65"/>
    </edge>
    <edge id=":42_0" function="internal">
        <lane id=":42_0_0" index="0" speed="14.00" length="3.90" shape="3186.33,132.61 3183.76,135.85"/>
        <lane id=":42_0_1" index="1" speed="14.00" length="3.90" shape="3186.48,129.32 3183.76,132.55"/>
        <lane id=":42_0_2" index="2" speed="14.00" length="3.90" shape="3186.64,126.02 3183.76,129.25"/>
        <lane id=":42_0_3" index="3" speed="14.00" length="3.90" shape="3186.64,126.02 3183.76,125.95"/>
    </edge>
    <edge id=":42_4" function="internal">
        <lane id=":42_4_0" index="0" speed="14.00" length="4.08" shape="3183.76,119.35 3187.11,116.13"/>
        <lane id=":42_4_1" index="1" speed="14.00" length="4.08" shape="3183.76,122.65 3186.96,119.43"/>
        <lane id=":42_4_2" index="2" speed="14.00" length="4.08" shape="3183.76,122.65 3186.80,122.72"/>
    </edge>
    <edge id=":43_0" function="internal">
        <lane id=":43_0_0" index="0" speed="14.00" length="17.69" shape="3212.16,139.85 3209.69,137.10 3206.52,135.08 3202.64,133.77 3198.06,133.17"/>
        <lane id=":43_0_1" index="1" speed="14.00" length="17.69" shape="3214.89,137.99 3211.91,134.64 3208.14,132.18 3203.58,130.59 3198.22,129.88"/>
    </edge>
    <edge id=":43_2" function="internal">
        <lane id=":43_2_0" index="0" speed="14.00" length="8.42" shape="3225.55,130.60 3222.30,130.79 3220.35,131.46 3219.70,132.62 3220.34,134.27"/>
    </edge>
    <edge id=":43_3" function="internal">
        <lane id=":43_3_0" index="0" speed="14.00" length="27.29" shape="3225.55,130.60 3218.98,130.52 3213.26,130.43 3206.84,130.24 3198.22,129.88"/>
        <lane id=":43_3_1" index="1" speed="14.00" length="27.29" shape="3225.60,127.30 3219.04,127.22 3213.34,127.13 3206.96,126.94 3198.37,126.58"/>
    </edge>
    <edge id=":43_5" function="internal">
        <lane id=":43_5_0" index="0" speed="14.00" length="22.98" shape="3211.19,104.91 3216.69,111.80 3220.93,116.73 3223.94,119.70 3225.69,120.70"/>
        <lane id=":43_5_1" index="1" speed="14.00" length="22.98" shape="3208.59,106.93 3214.60,114.38 3219.45,119.70 3223.13,122.91 3225.65,124.00"/>
    </edge>
    <edge id=":43_7" function="internal">
        <lane id=":43_7_0" index="0" speed="14.00" length="29.07" shape="3205.98,108.95 3211.19,116.60 3214.39,122.82 3216.97,128.45 3220.34,134.27"/>
        <lane id=":43_7_1" index="1" speed="14.00" length="29.07" shape="3203.37,110.97 3208.54,118.56 3211.70,124.74 3214.26,130.32 3217.61,136.13"/>
    </edge>
    <edge id=":43_9" function="internal">