<?xml version="1.0" encoding="UTF-8"?>

<!-- generated on 06/04/16 15:50:54 by SUMO duarouter Version 0.25.0
<?xml version="1.0" encoding="UTF-8"?>

<configuration xmlns:xsi="http://www.w3.org/2001/XMLSchema-instance" xsi:noNamespaceSchemaLocation="http://sumo.dlr.de/xsd/duarouterConfiguration.xsd">

    <input>
        <net-file value="map.net.xml"/>
        <trip-files value="trips.trips.xml"/>
    </input>

    <output>
        <output-file value="map.rou.xml"/>
    </output>

    <processing>
        <ignore-errors value="true"/>
    </processing>

    <time>
        <begin value="0"/>
        <end value="100.0"/>
    </time>

    <report>
        <no-warnings value="true"/>
        <no-step-log value="true"/>
    </report>

</configuration>
-->

<routes xmlns:xsi="http://www.w3.org/2001/XMLSchema-instance" xsi:noNamespaceSchemaLocation="http://sumo.dlr.de/xsd/routes_file.xsd">
    <vehicle id="0" depart="0.00">
        <route edges="5976858#1 50846720#10 50846720#11 -5979291#1 5979291#1"/>
    </vehicle>
    <vehicle id="1" depart="1.00">
        <route edges="-143329356#0 142865480 143329372 49187078#0 49187078#1 49187078#2 49187078#3 49187078#4 49187078#5 50846749 50846753 116069186#0 116069186#1 5982169#0 -50846782#3 -50846782#2 -50846782#1 -5986247#2 -5986247#1 5986247#1"/>
    </vehicle>
    <vehicle id="2" depart="2.00">
        <route edges="49187078#3 49187078#4 49187078#5 50846749 50846753 116069186#0 116069186#1 -5968215#1 26467810 116069261 50846756 50846755#0"/>
    </vehicle>
    <vehicle id="3" depart="3.00">
        <route edges="5988429#0 -5988429#0 50846720#2 50846720#3 50846720#4 50846720#5 243728742#1 243728742#2 49187078#5"/>
    </vehicle>
    <vehicle id="4" depart="4.00">
        <route edges="-50846720#6 -50846720#5 -50846720#4 -50846720#3 -50846720#2 5988429#0 5988429#1 5988429#2 5988429#3 244626213#1 50846710#0 -143655142 -143655135#0"/>
    </vehicle>
    <vehicle id="5" depart="5.00">
        <route edges="49187078#5 50846749 50846753 116069186#0 116069186#1 5982169#0 -50846782#3 -50846782#2 -50846782#1"/>
    </vehicle>
    <vehicle id="6" depart="6.00">
        <route edges="50846726#0 50846726#1 -5988429#4 244626213#1 50846710#0 50846710#1 50846720#0 50846720#1 50846720#2 50846720#3 50846720#4"/>
    </vehicle>
    <vehicle id="7" depart="7.00">
        <route edges="-143329356#0"/>
    </vehicle>
    <vehicle id="8" depart="8.00">
        <route edges="143655141 5988429#3 244626213#1 50846710#0 50846710#1 -50846713#2 -50846713#1 -50846713#0 50846755#3 50846755#4 50846755#5 143329374 -143329373 143329372"/>
    </vehicle>
    <vehicle id="9" depart="9.00">
        <route edges="50846755#2 50846713#0 49187078#3 49187078#4 49187078#5 50846749 50846753 116069186#0 116069186#1 5982169#0 -50846782#3 -50846782#2 -50846782#1 -5986247#2 5986247#2"/>
    </vehicle>
    <vehicle id="10" depart="10.00">
        <route edges="50846724#0 5965599#1 244626192#1 363235688#0 50846755#4 50846755#5 49187078#0 49187078#1"/>
    </vehicle>
    <vehicle id="11" depart="11.00">
        <route edges="-50846713#1 49187078#3 49187078#4 49187078#5 50846749 50846753 116069186#0 116069186#1 5982169#0 -50846782#3 -50846782#2 50846782#2"/>
    </vehicle>
    <vehicle id="12" depart="12.00">
        <route edges="-5972214#1 5965712 -50846782#3 116069075#1 26467810 50846763 -50846769 -50846765 -50846720#12 -50846720#11 -50846720#10 -50846720#9 -50846720#8 -50846720#7 -50846720#6 -50846720#5 -50846720#4 -50846720#3 -50846720#2 -50846720#1"/>
    </vehicle>
    <vehicle id="13" depart="13.00">
        <route edges="5967019 50846720#8 50846720#9 50846720#10 50846720#11 50846720#12 50846765 143655840#0 143655840#1"/>
    </vehicle>
    <vehicle id="14" depart="14.00">
        <route edges="116069075#1 26467810 116069261 50846756 50846755#0 50846755#1 243728741#1 243728741#2 5991368#1 5991369#0 5991369#1 5967694"/>
    </vehicle>
    <vehicle id="15" depart="15.00">
        <route edges="387597533 28750028 -5988429#4 244626213#1 50846710#0 50846710#1 -50846713#2 -50846713#1 49187078#3 49187078#4 49187078#5 50846749 50846753 116069186#0 116069186#1 -5968215#1 26467810 116069261 50846756 50846755#0"/>
    </vehicle>
    <vehicle id="16" depart="16.00">
        <route edges="50846710#1 -50846713#2 -50846713#1 49187078#3 49187078#4 49187078#5 50846749 50846753 116069186#0 116069186#1 5982169#0 -50846782#3 -50846782#2 -50846782#1 -50846782#0"/>
    </vehicle>
    <vehicle id="17" depart="17.00">
        <route edges="49187078#3 243728741#2 243728741#3 -50846720#4 -50846720#3 50846720#3"/>
    </vehicle>
    <vehicle id="18" depart="18.00">
        <route edges="-5968215#0 5968215#0 5968215#1 5982169#0 5982169#1 5982169#2 5982169#3 76697656#3 114850054#0 114850054#1 116069075#0"/>
    </vehicle>
    <vehicle id="19" depart="19.00">
        <route edges="-5968215#0 5968215#0 5968215#1 5982169#0 -50846782#3 116069075#1"/>
    </vehicle>
    <vehicle id="20" depart="20.00">
        <route edges="50846720#1 -50846720#1 -50846720#0 -142530979 244626213#3 50846744 50846724#0 5965599#1 244626192#1 244626192#2 50846728"/>
    </vehicle>
    <vehicle id="21" depart="21.00">
        <route edges="-5991369#3 -5991369#2 -5991369#1 -5991369#0 -5991368#1 -5991368#0 243728742#2 49187078#5 50846749 50846753"/>
    </vehicle>
    <vehicle id="22" depart="22.00">
        <route edges="5968215#0 26467810 50846763 -50846769 -50846765 -50846720#12 -50846720#11 -50846720#10 -50846720#9 -50846720#8 -50846720#7 -50846720#6 -50846720#5 -50846720#4 -50846720#3 -50846720#2 5988429#0 5988429#1 5988429#2 5988429#3 244626213#1 50846710#0 -143655142"/>
    </vehicle>
    <vehicle id="23" depart="23.00">
        <route edges="5977975 50846720#4 243728741#4 -244626184#2"/>
    </vehicle>
    <vehicle id="24" depart="24.00">
        <route edges="143655135#1 5988429#2 5988429#3 244626213#1 50846710#0 50846710#1 50846720#0 50846720#1 50846720#2 50846720#3 50846720#4 50846720#5 50846720#6 50846720#7 50846720#8 50846720#9 50846720#10 50846720#11 50846720#12"/>
    </vehicle>
    <vehicle id="25" depart="25.00">
        <route edges="-5968215#2 -5968215#1 26467810 50846763 -50846769 -50846765 -50846720#12 -50846720#11 -50846720#10 -50846720#9"/>
    </vehicle>
    <vehicle id="26" depart="26.00">
        <route edges="-143329356#1 143329356#1 28750028 -5988429#4 244626213#1 50846710#0 50846710#1 50846720#0 50846720#1 50846720#2 50846720#3 50846720#4 50846720#5 50846720#6 50846720#7 50846720#8 50846720#9 50846720#10 50846720#11 50846720#12 -50846720#12"/>
    </vehicle>
    <vehicle id="27" depart="27.00">
        <route edges="76697655#0 76697655#1 76697656#1 76697656#2 76697656#3 114850054#0 114850054#1 116069075#0 116069075#1 26467810 116069261 50846756 50846755#0"/>
    </vehicle>
    <vehicle id="28" depart="28.00">
        <route edges="76697654#1 76697654#2 76697654#3 5982169#2 5982169#3 76697656#3 114850054#0 114850054#1 116069075#0 116069075#1 -5968215#0 5968215#0"/>
    </vehicle>
    <vehicle id="29" depart="29.00">
        <route edges="50846755#2 50846713#0 49187078#3 49187078#4 49187078#5 50846749 50846753 116069186#0 116069186#1 -5968215#1 26467810 116069261 50846756 50846755#0"/>
    </vehicle>
    <vehicle id="30" depart="30.00">
        <route edges="143329356#1 28750028 -5988429#4 244626213#1 50846710#0 50846710#1 50846720#0 50846720#1 50846720#2 50846720#3 50846720#4 50846720#5 50846720#6 50846720#7 50846720#8 50846720#9 50846720#10 50846720#11 50846720#12 50846765"/>
    </vehicle>
    <vehicle id="31" depart="31.00">
        <route edges="-5968215#2 -5968215#1 26467810 116069261 50846756 50846755#0 50846755#1 50846755#2 50846755#3 50846755#4 50846755#5 143329374 -143329373 -142865480 143329356#0"/>
    </vehicle>
    <vehicle id="32" depart="32.00">
        <route edges="49187078#5 50846749 50846753 -50846769 -50846765 -50846720#12 -50846720#11 -50846720#10 -50846720#9 -50846720#8 -50846720#7 -50846720#6 -50846720#5 -50846720#4 -50846720#3 -50846720#2 -50846720#1 142530980 -50846713#1 -50846713#0 50846755#3"/>
    </vehicle>
    <vehicle id="33" depart="33.00">
        <route edges="50846726#0 50846726#1 -5988429#4 244626213#1 50846710#0 50846710#1 -50846713#2 -50846713#1 -50846713#0 50846755#3 50846755#4 50846755#5 143329374 -143329373 -142865480 143329356#0"/>
    </vehicle>
    <vehicle id="34" depart="34.00">
        <route edges="50846755#4 50846755#5 49187078#0 49187078#1 49187078#2 49187078#3 49187078#4 49187078#5 50846749 50846753 116069186#0 116069186#1 5982169#0 5982169#1 -76697654#3 -76697654#2"/>
    </vehicle>
    <vehicle id="35" depart="35.00">
        <route edges="-28749853 50846720#9 50846720#10 50846720#11 50846720#12 50846765 143655840#0 143655840#1 116069186#1 5982169#0 5982169#1 -76697654#3 5972515"/>
    </vehicle>
    <vehicle id="36" depart="36.00">
        <route edges="-244626184#1 244626184#1 244626184#2 243728742#0 50846720#6 50846720#7 50846720#8 50846720#9 50846720#10 50846720#11 50846720#12 50846765 143655840#0 143655840#1 116069186#1 5982169#0"/>
    </vehicle>
    <vehicle id="37" depart="37.00">
        <route edges="49187078#3 49187078#4 243728742#3 50846755#1 50846755#2 50846713#0 50846713#1 50846713#2 -142530979 244626213#3 50846744 50846724#0 5965599#1 244626192#1 363235688#0"/>
    </vehicle>
    <vehicle id="38" depart="38.00">
        <route edges="114850054#1 116069075#0 116069075#1 -5968215#0 5968215#0"/>
    </vehicle>
    <vehicle id="39" depart="39.00">
        <route edges="244626184#2 243728742#0 243728742#1 5991368#0 243728741#3"/>
    </vehicle>
    <vehicle id="40" depart="40.00">
        <route edges="-50846765 50846765 143655840#0 143655840#1 116069186#1 -5968215#1 26467810 116069261 50846756 50846755#0"/>
    </vehicle>
    <vehicle id="41" depart="41.00">
        <route edges="50846782#1 50846782#2 116069075#1 -5968215#0"/>
    </vehicle>
    <vehicle id="42" depart="42.00">
        <route edges="116069075#0 116069075#1 26467810 116069261 50846756 50846755#0 50846755#1 50846755#2"/>
    </vehicle>
    <vehicle id="43" depart="43.00">
        <route edges="5976858#0 5976858#1 50846720#10 50846720#11 50846720#12 50846765 143655840#0 143655840#1 116069186#1 -5968215#1 -5968215#0 5971039#1 -5971039#1"/>
    </vehicle>
    <vehicle id="44" depart="44.00">
        <route edges="-5986247#2 5986247#2 50846782#1 50846782#2 116069075#1 26467810 116069261 50846756 50846755#0 50846755#1 50846755#2 50846713#0 49187078#3"/>
    </vehicle>
    <vehicle id="45" depart="45.00">
        <route edges="5968215#0 5968215#1 5982169#0 -50846782#3 -50846782#2 -50846782#1 -5986247#2 -5986247#1 -5971039#3"/>
    </vehicle>
    <vehicle id="46" depart="46.00">
        <route edges="50846755#2 50846713#0 49187078#3 49187078#4 49187078#5 50846749 50846753 116069186#0 116069186#1 -5968215#1 26467810 116069261 50846756 50846755#0"/>
    </vehicle>
    <vehicle id="47" depart="47.00">
        <route edges="5982169#0 -50846782#3 116069075#1 26467810 116069261 50846756 50846755#0 50846755#1 50846755#2 50846755#3 50846755#4 50846755#5 -89534885"/>
    </vehicle>
    <vehicle id="48" depart="48.00">
        <route edges="50846765 -50846765 -50846720#12 -50846720#11 -50846720#10 -50846720#9 -50846720#8 -50846720#7 -50846720#6 243728742#1 243728742#2 243728742#3 50846755#1 50846755#2"/>
    </vehicle>
    <vehicle id="49" depart="49.00">
        <route edges="89534893 50846726#1 -5988429#4 244626213#1 244626213#2 244626213#3"/>
    </vehicle>
    <vehicle id="50" depart="50.00">
        <route edges="-5991176 5976858#0 5976858#1 50846720#10 50846720#11 50846720#12 50846765 143655840#0 143655840#1 116069186#1 5982169#0 -50846782#3 -50846782#2 -50846782#1 -5986247#2 -5986247#1 -5971039#3"/>
    </vehicle>
    <vehicle id="51" depart="51.00">
        <route edges="116069075#0 50846782#3 5982169#1 5982169#2 76697634#1"/>
    </vehicle>
    <vehicle id="52" depart="52.00">
        <route edges="5986247#2 50846782#1 50846782#2 116069075#1 26467810 116069261 50846756 50846755#0"/>
    </vehicle>
    <vehicle id="53" depart="53.00">
        <route edges="26467810 50846763 116069186#0 116069186#1 5982169#0 5982169#1 5982169#2 5982169#3 114850085#0 114850085#1"/>
    </vehicle>
    <vehicle id="54" depart="54.00">
        <route edges="-5991368#1 243728741#3 50846720#5 50846720#6 50846720#7 50846720#8 50846720#9 5964233 -5968278"/>
    </vehicle>
    <vehicle id="55" depart="55.00">
        <route edges="5991176 5979291#1"/>
    </vehicle>
    <vehicle id="56" depart="56.00">
        <route edges="49187078#3 49187078#4 49187078#5 50846749 50846753 116069186#0 116069186#1 5982169#0 -50846782#3 -50846782#2 -50846782#1 50846782#1"/>
    </vehicle>
    <vehicle id="57" depart="57.00">
        <route edges="116069075#1 5968215#1 5968215#2 -143655853 143655853"/>
    </vehicle>
    <vehicle id="58" depart="58.00">
        <route edges="5972515 5972211#1 5972214#0 5965712 -50846782#3 116069075#1 26467810 50846763 -50846769 -50846765 -50846720#12 -50846720#11 -50846720#10 -50846720#9 -50846720#8 -50846720#7 -50846720#6 -50846720#5 -50846720#4 -50846720#3 -50846720#2 5988429#0 5988429#1 -5988429#1"/>
    </vehicle>
    <vehicle id="59" depart="59.00">
        <route edges="-142530979 244626213#3 50846744 50846724#0 5965599#1 244626192#1 363235688#0 363235688#1 49187078#2 49187078#3"/>
    </vehicle>
    <vehicle id="60" depart="60.00">
        <route edges="5986247#2 50846782#1 50846782#2 116069075#1 5968215#1 5968215#2 5968215#3"/>
    </vehicle>
    <vehicle id="61" depart="61.00">
        <route edges="5971039#1 -5971039#1 5968215#0 26467810 116069261 50846756 50846755#0 50846755#1 243728741#1 243728741#2 243728741#3"/>
    </vehicle>
    <vehicle id="62" depart="62.00">
        <route edges="-5979291#1 5979291#1 50846720#12 50846765 143655840#0 143655840#1 116069186#1 -5968215#1 26467810 50846763 -50846769"/>
    </vehicle>
    <vehicle id="63" depart="63.00">
        <route edges="-5972921 -5971039#1 5968215#0 26467810 116069261 50846756 50846755#0 50846755#1 243728741#1 49187078#4 49187078#5"/>
    </vehicle>
    <vehicle id="64" depart="64.00">
        <route edges="49187078#2 49187078#3"/>
    </vehicle>
    <vehicle id="65" depart="65.00">
        <route edges="-5968215#3 -5968215#2 -5968215#1 26467810 116069261 50846756 50846755#0 50846755#1 50846755#2 50846713#0 50846713#1 50846713#2 -142530979"/>
    </vehicle>
    <vehicle id="66" depart="66.00">
        <route edges="-5972921 5971039#2 5971039#3 -5971039#3"/>
    </vehicle>
    <vehicle id="67" depart="67.00">
        <route edges="50846755#2 50846755#3 50846755#4 50846755#5 -89534885"/>
    </vehicle>
    <vehicle id="68" depart="68.00">
        <route edges="5982169#2 5982169#3 76697656#3 114850054#0 114850054#1 116069075#0 50846782#3 5982169#1"/>
    </vehicle>
    <vehicle id="69" depart="69.00">
        <route edges="-5988429#0 -50846720#1 142530980 -50846713#1 -50846713#0 -5974128"/>
    </vehicle>
    <vehicle id="70" depart="70.00">
        <route edges="49187078#2 49187078#3 243728741#2 243728741#3 243728741#4 -244626184#2 244626184#2"/>
    </vehicle>
    <vehicle id="71" depart="71.00">
        <route edges="-5976858#1 5976858#1 -50846720#9 -50846720#8 -50846720#7 -50846720#6 243728742#1 5991368#0 243728741#3"/>
    </vehicle>
    <vehicle id="72" depart="72.00">
        <route edges="243728741#0 50846755#2 50846755#3"/>
    </vehicle>
    <vehicle id="73" depart="73.00">
        <route edges="5991176 5979291#1 -50846720#11 -50846720#10 -50846720#9 -50846720#8 -50846720#7 -50846720#6 243728742#1 243728742#2 243728742#3 50846755#1 243728741#1"/>
    </vehicle>
    <vehicle id="74" depart="74.00">
        <route edges="-50846720#4 50846720#4 50846720#5 50846720#6 50846720#7 50846720#8 50846720#9 50846720#10 50846720#11 50846720#12 50846765 143655840#0 143655840#1 116069186#1 5982169#0 -5965712 -5972214#0 -5972211#1"/>
    </vehicle>
    <vehicle id="75" depart="75.00">
        <route edges="-5972214#0 5972214#0 5965712 -50846782#3 116069075#1 26467810 116069261 50846756 50846755#0 50846755#1 50846755#2 50846713#0 50846713#1 50846713#2 -142530979"/>
    </vehicle>
    <vehicle id="76" depart="76.00">
        <route edges="-143655853 143655853 -5968215#2 -5968215#1 26467810 50846763 116069186#0 116069186#1"/>
    </vehicle>
    <vehicle id="77" depart="77.00">
        <route edges="-5991176 5976858#0 5976858#1 -50846720#9 -50846720#8 -50846720#7 -50846720#6 243728742#1 5991368#0 5991368#1 5991369#0 5991369#1"/>
    </vehicle>
    <vehicle id="78" depart="78.00">
        <route edges="49187078#5 50846749 50846753 -50846769 -50846765 -50846720#12 -50846720#11 -50846720#10 -50846720#9 -50846720#8 -50846720#7 -50846720#6 243728742#1 5991368#0 243728741#3"/>
    </vehicle>
    <vehicle id="79" depart="79.00">
        <route edges="-5976858#1 5976858#1 -50846720#9 -50846720#8 -50846720#7 -50846720#6 -50846720#5 -50846720#4 -50846720#3 -50846720#2 -50846720#1 142530980 -50846713#1 49187078#3"/>
    </vehicle>
    <vehicle id="80" depart="80.00">
        <route edges="5982169#2 5982169#3 76697656#3 114850054#0 114850054#1 116069075#0 116069075#1 26467810 116069261 50846756 50846755#0 50846755#1 50846755#2 50846755#3 50846755#4 50846755#5 143329374 -143329370"/>
    </vehicle>
    <vehicle id="81" depart="81.00">
        <route edges="50846710#1 -142530979 244626213#3 50846744 50846724#0"/>
    </vehicle>
    <vehicle id="82" depart="82.00">
        <route edges="-5972515 76697654#3 5982169#2 5982169#3 76697656#3 114850054#0 114850054#1 116069075#0 116069075#1 26467810 50846763 -50846769 143655840#0 143655835#0"/>
    </vehicle>
    <vehicle id="83" depart="83.00">
        <route edges="5972211#1 5972214#0 5965712 5982169#1 5982169#2 5982169#3 114850085#0"/>
    </vehicle>
    <vehicle id="84" depart="84.00">
        <route edges="-244626184#2 244626184#2 243728742#0 50846720#6 50846720#7 50846720#8 50846720#9 50846720#10 50846720#11 50846720#12 50846765 143655840#0 143655840#1 116069186#1 -5968215#1 -5968215#0"/>
    </vehicle>
    <vehicle id="85" depart="85.00">
        <route edges="-143655838 -143655835#0 143655840#1 116069186#1 -5968215#1 26467810 116069261 50846756 50846755#0 50846755#1 50846755#2 50846755#3"/>
    </vehicle>
    <vehicle id="86" depart="86.00">
        <route edges="49187078#5 50846749 50846753 116069186#0 116069186#1 -5968215#1 -5968215#0"/>
    </vehicle>
    <vehicle id="87" depart="87.00">
        <route edges="143655835#0 -143655835#0 143655840#1 116069186#1 -5968215#1 26467810 116069261 50846756 50846755#0 50846755#1 243728741#1 49187078#4 49187078#5 50846749 50846753"/>
    </vehicle>
    <vehicle id="88" depart="88.00">
        <route edges="-143329356#0 142865480 143329372 49187078#0 49187078#1 49187078#2 49187078#3 243728741#2 243728741#3 50846720#5 50846720#6 28749905"/>
    </vehicle>
    <vehicle id="89" depart="89.00">
        <route edges="-143329356#0 143329356#0 -142865467"/>
    </vehicle>
    <vehicle id="90" depart="90.00">
        <route edges="50846720#10 50846720#11 50846720#12 50846765 143655840#0 143655840#1 116069186#1 5982169#0 -50846782#3 116069075#1"/>
    </vehicle>
    <vehicle id="91" depart="91.00">
        <route edges="-143655135#1 143655135#1"/>
    </vehicle>
    <vehicle id="92" depart="92.00">
        <route edges="142865480 143329372 49187078#0 49187078#1 49187078#2 49187078#3 49187078#4 49187078#5 50846749 50846753 116069186#0 116069186#1 5982169#0 -5965712 -5972214#0 -5972211#1"/>
    </vehicle>
    <vehicle id="93" depart="93.00">
        <route edges="5982169#1 5982169#2 5982169#3 76697656#3 114850054#0 114850054#1 116069075#0 -50846782#2 -50846782#1 -5986247#2 -5986247#1"/>
    </vehicle>
    <vehicle id="94" depart="94.00">
        <route edges="50846744 50846724#0 5965599#1 244626192#1 363235688#0 363235688#1 49187078#2 49187078#3 49187078#4 49187078#5 50846749 50846753 116069186#0 116069186#1 5968215#2 -143655853 -143655838"/>
    </vehicle>
    <vehicle id="95" depart="95.00">
        <route edges="-5979291#1 5979291#1 50846720#12 50846765 143655840#0 143655840#1 116069186#1 5982169#0 -5965712 5972214#1"/>
    </vehicle>
    <vehicle id="96" depart="96.00">
        <route edges="116069261 50846756 50846755#0 50846755#1 243728741#1 243728741#2 243728741#3 50846720#5 50846720#6 50846720#7 50846720#8 50846720#9 50846720#10 5987516"/>
    </vehicle>
    <vehicle id="97" depart="97.00">
        <route edges="5972214#0 5965712 -50846782#3 116069075#1 5968215#1 5968215#2 -143655853 -143655838"/>
    </vehicle>
    <vehicle id="98" depart="98.00">
        <route edges="5988429#0 -5988429#0 50846720#2 50846720#3 50846720#4 50846720#5 50846720#6 50846720#7 50846720#8 50846720#9 50846720#10 50846720#11 50846720#12 50846765 143655840#0 143655840#1 116069186#1 -5968215#1 -5968215#0 -5971039#0"/>
    </vehicle>
    <vehicle id="99" depart="99.00">
        <route edges="-5979291#1 5979291#1 -50846720#11 -50846720#10 -50846720#9 -50846720#8 -50846720#7 -50846720#6 -50846720#5 -50846720#4 -50846720#3 -50846720#2 -50846720#1 142530980 -50846713#1 -50846713#0 50846755#3"/>
    </vehicle>
</routes>
