<types>
	<type id="a" priority="1" numLanes="2" speed = "14.0" />
</types>