<?xml version="1.0" encoding="UTF-8"?>
<flows>
	<flow id="type0" from="D2" to="D7" begin="0" end="7200" number="100"/>
</flows>