<?xml version="1.0" encoding="UTF-8"?>

<!-- generated on 07/19/16 06:25:00 by SUMO netconvert Version 0.24.0
<?xml version="1.0" encoding="UTF-8"?>

<configuration xmlns:xsi="http://www.w3.org/2001/XMLSchema-instance" xsi:noNamespaceSchemaLocation="http://sumo.dlr.de/xsd/netconvertConfiguration.xsd">

    <input>
        <node-files value="cross1ltl\nod.nod.xml"/>
        <edge-files value="cross1ltl\edg.edg.xml"/>
    </input>

    <output>
        <output-file value="cross1ltl\net.net.xml"/>
    </output>

</configuration>
-->

<net version="0.13" xmlns:xsi="http://www.w3.org/2001/XMLSchema-instance" xsi:noNamespaceSchemaLocation="http://sumo.dlr.de/xsd/net_file.xsd">

    <location netOffset="500.00,500.00" convBoundary="0.00,0.00,1500.00,1000.00" origBoundary="-500.00,-500.00,1000.00,500.00" projParameter="!"/>

    <edge id=":0_0" function="internal">
        <lane id=":0_0_0" index="0" speed="20.00" length="5.00" shape="498.35,504.75 498.16,503.39 497.58,502.42 496.61,501.84 495.25,501.65"/>
    </edge>
    <edge id=":0_1" function="internal">
        <lane id=":0_1_0" index="0" speed="20.00" length="12.80" shape="498.35,504.75 498.35,501.34 498.35,498.35 498.35,495.36 498.35,491.95"/>
    </edge>
    <edge id=":0_2" function="internal">
        <lane id=":0_2_0" index="0" speed="20.00" length="5.28" shape="498.35,504.75 498.75,501.95 499.95,499.95 500.05,499.89"/>
    </edge>
    <edge id=":0_3" function="internal">
        <lane id=":0_3_0" index="0" speed="20.00" length="2.41" shape="498.35,504.75 499.18,503.51 500.00,503.10"/>
    </edge>
    <edge id=":0_16" function="internal">
        <lane id=":0_16_0" index="0" speed="20.00" length="5.04" shape="500.05,499.89 501.95,498.75 504.75,498.35"/>
    </edge>
    <edge id=":0_17" function="internal">
        <lane id=":0_17_0" index="0" speed="20.00" length="2.41" shape="500.00,503.10 500.82,503.51 501.65,504.75"/>
    </edge>
    <edge id=":0_4" function="internal">
        <lane id=":0_4_0" index="0" speed="20.00" length="5.00" shape="504.75,501.65 503.39,501.84 502.42,502.42 501.84,503.39 501.65,504.75"/>
    </edge>
    <edge id=":0_5" function="internal">
        <lane id=":0_5_0" index="0" speed="20.00" length="9.50" shape="504.75,501.65 495.25,501.65"/>
    </edge>
    <edge id=":0_6" function="internal">
        <lane id=":0_6_0" index="0" speed="20.00" length="4.49" shape="504.75,501.65 501.95,501.04 500.75,499.95"/>
    </edge>
    <edge id=":0_7" function="internal">
        <lane id=":0_7_0" index="0" speed="20.00" length="2.41" shape="504.75,501.65 503.51,500.82 503.10,500.00"/>
    </edge>
    <edge id=":0_18" function="internal">
        <lane id=":0_18_0" index="0" speed="20.00" length="8.60" shape="500.75,499.95 499.95,499.22 498.75,496.19 498.35,491.95"/>
    </edge>
    <edge id=":0_19" function="internal">
        <lane id=":0_19_0" index="0" speed="20.00" length="2.41" shape="503.10,500.00 503.51,499.18 504.75,498.35"/>
    </edge>
    <edge id=":0_8" function="internal">
        <lane id=":0_8_0" index="0" speed="20.00" length="5.00" shape="501.65,491.95 501.84,493.31 502.42,494.27 503.39,494.86 504.75,495.05"/>
    </edge>
    <edge id=":0_9" function="internal">
        <lane id=":0_9_0" index="0" speed="20.00" length="12.80" shape="501.65,491.95 501.65,495.36 501.65,498.35 501.65,501.34 501.65,504.75"/>
    </edge>
    <edge id=":0_10" function="internal">
        <lane id=":0_10_0" index="0" speed="20.00" length="7.66" shape="501.65,491.95 501.25,496.19 500.05,499.23 499.95,499.32"/>
    </edge>
    <edge id=":0_11" function="internal">
        <lane id=":0_11_0" index="0" speed="20.00" length="2.41" shape="501.65,491.95 500.82,493.19 500.00,493.60"/>
    </edge>
    <edge id=":0_20" function="internal">
        <lane id=":0_20_0" index="0" speed="20.00" length="5.43" shape="499.95,499.32 498.05,501.04 495.25,501.65"/>
    </edge>
    <edge id=":0_21" function="internal">
        <lane id=":0_21_0" index="0" speed="20.00" length="2.41" shape="500.00,493.60 499.18,493.19 498.35,491.95"/>
    </edge>
    <edge id=":0_12" function="internal">
        <lane id=":0_12_0" index="0" speed="20.00" length="7.85" shape="495.25,498.35 496.61,497.95 497.58,496.75 498.16,494.75 498.35,491.95"/>
    </edge>
    <edge id=":0_13" function="internal">
        <lane id=":0_13_0" index="0" speed="20.00" length="9.50" shape="495.25,498.35 504.75,498.35"/>
    </edge>
    <edge id=":0_14" function="internal">
        <lane id=":0_14_0" index="0" speed="20.00" length="5.28" shape="495.25,498.35 498.05,498.75 500.05,499.95 500.11,500.05"/>
    </edge>
    <edge id=":0_15" function="internal">
        <lane id=":0_15_0" index="0" speed="20.00" length="2.41" shape="495.25,498.35 496.49,499.18 496.90,500.00"/>
    </edge>
    <edge id=":0_22" function="internal">
        <lane id=":0_22_0" index="0" speed="20.00" length="5.04" shape="500.11,500.05 501.25,501.95 501.65,504.75"/>
    </edge>
    <edge id=":0_23" function="internal">
        <lane id=":0_23_0" index="0" speed="20.00" length="2.41" shape="496.90,500.00 496.49,500.82 495.25,501.65"/>
    </edge>
    <edge id=":1_0" function="internal">
        <lane id=":1_0_0" index="0" speed="20.00" length="4.82" shape="0.00,501.65 -1.24,500.82 -1.65,500.00 -1.24,499.18 0.00,498.35"/>
    </edge>
    <edge id=":2_0" function="internal">
        <lane id=":2_0_0" index="0" speed="20.00" length="5.00" shape="998.35,504.75 998.16,503.39 997.58,502.42 996.61,501.84 995.25,501.65"/>
    </edge>
    <edge id=":2_1" function="internal">
        <lane id=":2_1_0" index="0" speed="20.00" length="12.80" shape="998.35,504.75 998.35,501.34 998.35,498.35 998.35,495.36 998.35,491.95"/>
    </edge>
    <edge id=":2_2" function="internal">
        <lane id=":2_2_0" index="0" speed="20.00" length="5.28" shape="998.35,504.75 998.75,501.95 999.95,499.95 1000.05,499.89"/>
    </edge>
    <edge id=":2_3" function="internal">
        <lane id=":2_3_0" index="0" speed="20.00" length="2.41" shape="998.35,504.75 999.17,503.51 1000.00,503.10"/>
    </edge>
    <edge id=":2_17" function="internal">
        <lane id=":2_17_0" index="0" speed="20.00" length="5.04" shape="1000.05,499.89 1001.95,498.75 1004.75,498.35"/>
    </edge>
    <edge id=":2_18" function="internal">
        <lane id=":2_18_0" index="0" speed="20.00" length="2.41" shape="1000.00,503.10 1000.83,503.51 1001.65,504.75"/>
    </edge>
    <edge id=":2_4" function="internal">
        <lane id=":2_4_0" index="0" speed="20.00" length="5.00" shape="1004.75,501.65 1003.39,501.84 1002.43,502.42 1001.84,503.39 1001.65,504.75"/>
    </edge>
    <edge id=":2_5" function="internal">
        <lane id=":2_5_0" index="0" speed="20.00" length="9.50" shape="1004.75,501.65 995.25,501.65"/>
    </edge>
    <edge id=":2_6" function="internal">
        <lane id=":2_6_0" index="0" speed="20.00" length="4.49" shape="1004.75,501.65 1001.95,501.04 1000.75,499.95"/>
    </edge>
    <edge id=":2_7" function="internal">
        <lane id=":2_7_0" index="0" speed="20.00" length="2.41" shape="1004.75,501.65 1003.51,500.82 1003.10,500.00"/>
    </edge>
    <edge id=":2_19" function="internal">
        <lane id=":2_19_0" index="0" speed="20.00" length="8.60" shape="1000.75,499.95 999.95,499.22 998.75,496.19 998.35,491.95"/>
    </edge>
    <edge id=":2_20" function="internal">
        <lane id=":2_20_0" index="0" speed="20.00" length="2.41" shape="1003.10,500.00 1003.51,499.18 1004.75,498.35"/>
    </edge>
    <edge id=":2_8" function="internal">
        <lane id=":2_8_0" index="0" speed="20.00" length="5.00" shape="1001.65,491.95 1001.84,493.31 1002.43,494.27 1003.39,494.86 1004.75,495.05"/>
    </edge>
    <edge id=":2_9" function="internal">
        <lane id=":2_9_0" index="0" speed="20.00" length="12.80" shape="1001.65,491.95 1001.65,495.36 1001.65,498.35 1001.65,501.34 1001.65,504.75"/>
    </edge>
    <edge id=":2_10" function="internal">
        <lane id=":2_10_0" index="0" speed="20.00" length="7.66" shape="1001.65,491.95 1001.25,496.19 1000.05,499.23 999.95,499.32"/>
    </edge>
    <edge id=":2_11" function="internal">
        <lane id=":2_11_0" index="0" speed="20.00" length="2.41" shape="1001.65,491.95 1000.83,493.19 1000.00,493.60"/>
    </edge>
    <edge id=":2_21" function="internal">
        <lane id=":2_21_0" index="0" speed="20.00" length="5.43" shape="999.95,499.32 998.05,501.04 995.25,501.65"/>
    </edge>
    <edge id=":2_22" function="internal">
        <lane id=":2_22_0" index="0" speed="20.00" length="2.41" shape="1000.00,493.60 999.17,493.19 998.35,491.95"/>
    </edge>
    <edge id=":2_12" function="internal">
        <lane id=":2_12_0" index="0" speed="20.00" length="5.00" shape="995.25,495.05 996.61,494.86 997.57,494.28 998.16,493.31 998.35,491.95"/>
    </edge>
    <edge id=":2_13" function="internal">
        <lane id=":2_13_0" index="0" speed="20.00" length="9.50" shape="995.25,495.05 1004.75,495.05"/>
        <lane id=":2_13_1" index="1" speed="20.00" length="9.50" shape="995.25,498.35 1004.75,498.35"/>
    </edge>
    <edge id=":2_15" function="internal">
        <lane id=":2_15_0" index="0" speed="20.00" length="5.28" shape="995.25,498.35 998.05,498.75 1000.05,499.95 1000.11,500.05"/>
    </edge>
    <edge id=":2_16" function="internal">
        <lane id=":2_16_0" index="0" speed="20.00" length="2.41" shape="995.25,498.35 996.49,499.18 996.90,500.00"/>
    </edge>
    <edge id=":2_23" function="internal">
        <lane id=":2_23_0" index="0" speed="20.00" length="5.04" shape="1000.11,500.05 1001.25,501.95 1001.65,504.75"/>
    </edge>
    <edge id=":2_24" function="internal">
        <lane id=":2_24_0" index="0" speed="20.00" length="2.41" shape="996.90,500.00 996.49,500.82 995.25,501.65"/>
    </edge>
    <edge id=":3_0" function="internal">
        <lane id=":3_0_0" index="0" speed="20.00" length="4.82" shape="498.35,0.00 499.18,-1.24 500.00,-1.65 500.82,-1.24 501.65,0.00"/>
    </edge>
    <edge id=":4_0" function="internal">
        <lane id=":4_0_0" index="0" speed="20.00" length="4.82" shape="501.65,1000.00 500.82,1001.24 500.00,1001.65 499.18,1001.24 498.35,1000.00"/>
    </edge>
    <edge id=":6_0" function="internal">
        <lane id=":6_0_0" index="0" speed="20.00" length="4.82" shape="1500.00,498.35 1501.24,499.18 1501.65,500.00 1501.24,500.82 1500.00,501.65"/>
    </edge>
    <edge id=":7_0" function="internal">
        <lane id=":7_0_0" index="0" speed="20.00" length="4.82" shape="998.35,0.00 999.17,-1.24 1000.00,-1.65 1000.83,-1.24 1001.65,0.00"/>
    </edge>
    <edge id=":8_0" function="internal">
        <lane id=":8_0_0" index="0" speed="20.00" length="4.82" shape="1001.65,1000.00 1000.83,1001.24 1000.00,1001.65 999.17,1001.24 998.35,1000.00"/>
    </edge>

    <edge id="1i" from="1" to="0" priority="78">
        <lane id="1i_0" index="0" speed="20.00" length="495.25" shape="0.00,498.35 495.25,498.35"/>
    </edge>
    <edge id="1o" from="0" to="1" priority="46">
        <lane id="1o_0" index="0" speed="20.00" length="495.25" shape="495.25,501.65 0.00,501.65"/>
    </edge>
    <edge id="2i" from="2" to="0" priority="78">
        <lane id="2i_0" index="0" speed="20.00" length="490.50" shape="995.25,501.65 504.75,501.65"/>
    </edge>
    <edge id="2o" from="0" to="2" priority="46">
        <lane id="2o_0" index="0" speed="20.00" length="490.50" shape="504.75,495.05 995.25,495.05"/>
        <lane id="2o_1" index="1" speed="20.00" length="490.50" shape="504.75,498.35 995.25,498.35"/>
    </edge>
    <edge id="3i" from="3" to="0" priority="78">
        <lane id="3i_0" index="0" speed="20.00" length="491.95" shape="501.65,0.00 501.65,491.95"/>
    </edge>
    <edge id="3o" from="0" to="3" priority="46">
        <lane id="3o_0" index="0" speed="20.00" length="491.95" shape="498.35,491.95 498.35,0.00"/>
    </edge>
    <edge id="4i" from="4" to="0" priority="78">
        <lane id="4i_0" index="0" speed="20.00" length="495.25" shape="498.35,1000.00 498.35,504.75"/>
    </edge>
    <edge id="4o" from="0" to="4" priority="46">
        <lane id="4o_0" index="0" speed="20.00" length="495.25" shape="501.65,504.75 501.65,1000.00"/>
    </edge>
    <edge id="6i" from="6" to="2" priority="78">
        <lane id="6i_0" index="0" speed="20.00" length="495.25" shape="1500.00,501.65 1004.75,501.65"/>
    </edge>
    <edge id="6o" from="2" to="6" priority="46">
        <lane id="6o_0" index="0" speed="20.00" length="495.25" shape="1004.75,495.05 1500.00,495.05"/>
        <lane id="6o_1" index="1" speed="20.00" length="495.25" shape="1004.75,498.35 1500.00,498.35"/>
    </edge>
    <edge id="7i" from="7" to="2" priority="78">
        <lane id="7i_0" index="0" speed="20.00" length="491.95" shape="1001.65,0.00 1001.65,491.95"/>
    </edge>
    <edge id="7o" from="2" to="7" priority="46">
        <lane id="7o_0" index="0" speed="20.00" length="491.95" shape="998.35,491.95 998.35,0.00"/>
    </edge>
    <edge id="8i" from="8" to="2" priority="78">
        <lane id="8i_0" index="0" speed="20.00" length="495.25" shape="998.35,1000.00 998.35,504.75"/>
    </edge>
    <edge id="8o" from="2" to="8" priority="46">
        <lane id="8o_0" index="0" speed="20.00" length="495.25" shape="1001.65,504.75 1001.65,1000.00"/>
    </edge>

    <tlLogic id="0" type="static" programID="0" offset="0">
        <phase duration="55" state="rrrrGGggrrrrGGgg"/>
        <phase duration="5" state="rrrryyyyrrrryyyy"/>
        <phase duration="55" state="rrGGrrrrrrGGrrrr"/>
        <phase duration="5" state="rryyrrrrrryyrrrr"/>
    </tlLogic>
    <tlLogic id="2" type="static" programID="0" offset="0">
        <phase duration="55" state="rrrrGGggrrrrGGGgg"/>
        <phase duration="5" state="rrrryyyyrrrryyyyy"/>
        <phase duration="55" state="rrGGrrrrrrGGrrrrr"/>
        <phase duration="5" state="rryyrrrrrryyrrrrr"/>
    </tlLogic>

    <junction id="0" type="traffic_light" x="500.00" y="500.00" incLanes="4i_0 2i_0 3i_0 1i_0" intLanes=":0_0_0 :0_1_0 :0_16_0 :0_17_0 :0_4_0 :0_5_0 :0_18_0 :0_19_0 :0_8_0 :0_9_0 :0_20_0 :0_21_0 :0_12_0 :0_13_0 :0_22_0 :0_23_0" shape="496.75,504.75 503.25,504.75 504.75,503.25 504.75,493.45 503.25,491.95 496.75,491.95 495.25,496.75 495.25,503.25">
        <request index="0" response="0000000000000000" foes="1000010000100000" cont="0"/>
        <request index="1" response="0000000000000000" foes="0111110001100000" cont="0"/>
        <request index="2" response="0000001100000000" foes="0110001111100000" cont="1"/>
        <request index="3" response="0100001000010000" foes="0100001000010000" cont="1"/>
        <request index="4" response="0000001000000000" foes="0100001000001000" cont="0"/>
        <request index="5" response="0000011000000111" foes="1100011000000111" cont="0"/>
        <request index="6" response="0011011000000110" foes="0011111000000110" cont="1"/>
        <request index="7" response="0010000100000100" foes="0010000100000100" cont="1"/>
        <request index="8" response="0000000000000000" foes="0010000010000100" cont="0"/>
        <request index="9" response="0000000000000000" foes="0110000001111100" cont="0"/>
        <request index="10" response="0000000000000011" foes="1110000001100011" cont="1"/>
        <request index="11" response="0001000001000010" foes="0001000001000010" cont="1"/>
        <request index="12" response="0000000000000010" foes="0000100001000010" cont="0"/>
        <request index="13" response="0000011100000110" foes="0000011111000110" cont="0"/>
        <request index="14" response="0000011000110110" foes="0000011000111110" cont="1"/>
        <request index="15" response="0000010000100001" foes="0000010000100001" cont="1"/>
    </junction>
    <junction id="1" type="priority" x="0.00" y="500.00" incLanes="1o_0" intLanes=":1_0_0" shape="-0.00,499.95 -0.00,496.75 0.00,503.25 0.00,500.05">
        <request index="0" response="0" foes="0" cont="0"/>
    </junction>
    <junction id="2" type="traffic_light" x="1000.00" y="500.00" incLanes="8i_0 6i_0 7i_0 2o_0 2o_1" intLanes=":2_0_0 :2_1_0 :2_17_0 :2_18_0 :2_4_0 :2_5_0 :2_19_0 :2_20_0 :2_8_0 :2_9_0 :2_21_0 :2_22_0 :2_12_0 :2_13_0 :2_13_1 :2_23_0 :2_24_0" shape="996.75,504.75 1003.25,504.75 1004.75,503.25 1004.75,493.45 1003.25,491.95 996.75,491.95 995.25,493.45 995.25,503.25">
        <request index="0" response="00000000000000000" foes="10000010000100000" cont="0"/>
        <request index="1" response="00000000000000000" foes="01111110001100000" cont="0"/>
        <request index="2" response="00000001100000000" foes="01110001111100000" cont="1"/>
        <request index="3" response="01000001000010000" foes="01000001000010000" cont="1"/>
        <request index="4" response="00000001000000000" foes="01000001000001000" cont="0"/>
        <request index="5" response="00000011000000111" foes="11000011000000111" cont="0"/>
        <request index="6" response="00111011000000110" foes="00111111000000110" cont="1"/>
        <request index="7" response="00110000100000100" foes="00110000100000100" cont="1"/>
        <request index="8" response="00000000000000000" foes="00110000010000100" cont="0"/>
        <request index="9" response="00000000000000000" foes="01110000001111100" cont="0"/>
        <request index="10" response="00000000000000011" foes="11110000001100011" cont="1"/>
        <request index="11" response="00001000001000010" foes="00001000001000010" cont="1"/>
        <request index="12" response="00000000000000010" foes="00000100001000010" cont="0"/>
        <request index="13" response="00000011100000110" foes="00000011111000110" cont="0"/>
        <request index="14" response="00000011100000110" foes="00000011111000110" cont="0"/>
        <request index="15" response="00000011000110110" foes="00000011000111110" cont="1"/>
        <request index="16" response="00000010000100001" foes="00000010000100001" cont="1"/>
    </junction>
    <junction id="3" type="priority" x="500.00" y="0.00" incLanes="3o_0" intLanes=":3_0_0" shape="500.05,-0.00 503.25,-0.00 496.75,0.00 499.95,0.00">
        <request index="0" response="0" foes="0" cont="0"/>
    </junction>
    <junction id="4" type="priority" x="500.00" y="1000.00" incLanes="4o_0" intLanes=":4_0_0" shape="499.95,1000.00 496.75,1000.00 503.25,1000.00 500.05,1000.00">
        <request index="0" response="0" foes="0" cont="0"/>
    </junction>
    <junction id="6" type="priority" x="1500.00" y="500.00" incLanes="6o_0 6o_1" intLanes=":6_0_0" shape="1500.00,500.05 1500.00,503.25 1500.00,493.45 1500.00,499.95">
        <request index="0" response="0" foes="0" cont="0"/>
    </junction>
    <junction id="7" type="priority" x="1000.00" y="0.00" incLanes="7o_0" intLanes=":7_0_0" shape="1000.05,-0.00 1003.25,-0.00 996.75,0.00 999.95,0.00">
        <request index="0" response="0" foes="0" cont="0"/>
    </junction>
    <junction id="8" type="priority" x="1000.00" y="1000.00" incLanes="8o_0" intLanes=":8_0_0" shape="999.95,1000.00 996.75,1000.00 1003.25,1000.00 1000.05,1000.00">
        <request index="0" response="0" foes="0" cont="0"/>
    </junction>

    <junction id=":0_16_0" type="internal" x="500.05" y="499.89" incLanes=":0_2_0 3i_0" intLanes=":0_5_0 :0_6_0 :0_7_0 :0_8_0 :0_9_0 :0_13_0 :0_14_0"/>
    <junction id=":0_17_0" type="internal" x="500.00" y="503.10" incLanes=":0_3_0 1i_0 2i_0 3i_0" intLanes=":0_4_0 :0_9_0 :0_14_0"/>
    <junction id=":0_18_0" type="internal" x="500.75" y="499.95" incLanes=":0_6_0 1i_0" intLanes=":0_1_0 :0_2_0 :0_9_0 :0_10_0 :0_11_0 :0_12_0 :0_13_0"/>
    <junction id=":0_19_0" type="internal" x="503.10" y="500.00" incLanes=":0_7_0 1i_0 3i_0 4i_0" intLanes=":0_2_0 :0_8_0 :0_13_0"/>
    <junction id=":0_20_0" type="internal" x="499.95" y="499.32" incLanes=":0_10_0 4i_0" intLanes=":0_0_0 :0_1_0 :0_5_0 :0_6_0 :0_13_0 :0_14_0 :0_15_0"/>
    <junction id=":0_21_0" type="internal" x="500.00" y="493.60" incLanes=":0_11_0 1i_0 2i_0 4i_0" intLanes=":0_1_0 :0_6_0 :0_12_0"/>
    <junction id=":0_22_0" type="internal" x="500.11" y="500.05" incLanes=":0_14_0 2i_0" intLanes=":0_1_0 :0_2_0 :0_3_0 :0_4_0 :0_5_0 :0_9_0 :0_10_0"/>
    <junction id=":0_23_0" type="internal" x="496.90" y="500.00" incLanes=":0_15_0 2i_0 3i_0 4i_0" intLanes=":0_0_0 :0_5_0 :0_10_0"/>
    <junction id=":2_17_0" type="internal" x="1000.05" y="499.89" incLanes=":2_2_0 7i_0" intLanes=":2_5_0 :2_6_0 :2_7_0 :2_8_0 :2_9_0 :2_13_0 :2_13_1 :2_15_0"/>
    <junction id=":2_18_0" type="internal" x="1000.00" y="503.10" incLanes=":2_3_0 2o_1 6i_0 7i_0" intLanes=":2_4_0 :2_9_0 :2_15_0"/>
    <junction id=":2_19_0" type="internal" x="1000.75" y="499.95" incLanes=":2_6_0 2o_0 2o_1" intLanes=":2_1_0 :2_2_0 :2_9_0 :2_10_0 :2_11_0 :2_12_0 :2_13_0 :2_13_1"/>
    <junction id=":2_20_0" type="internal" x="1003.10" y="500.00" incLanes=":2_7_0 2o_0 2o_1 7i_0 8i_0" intLanes=":2_2_0 :2_8_0 :2_13_0 :2_13_1"/>
    <junction id=":2_21_0" type="internal" x="999.95" y="499.32" incLanes=":2_10_0 8i_0" intLanes=":2_0_0 :2_1_0 :2_5_0 :2_6_0 :2_13_0 :2_13_1 :2_15_0 :2_16_0"/>
    <junction id=":2_22_0" type="internal" x="1000.00" y="493.60" incLanes=":2_11_0 2o_0 6i_0 8i_0" intLanes=":2_1_0 :2_6_0 :2_12_0"/>
    <junction id=":2_23_0" type="internal" x="1000.11" y="500.05" incLanes=":2_15_0 6i_0" intLanes=":2_1_0 :2_2_0 :2_3_0 :2_4_0 :2_5_0 :2_9_0 :2_10_0"/>
    <junction id=":2_24_0" type="internal" x="996.90" y="500.00" incLanes=":2_16_0 6i_0 7i_0 8i_0" intLanes=":2_0_0 :2_5_0 :2_10_0"/>

    <connection from="1i" to="3o" fromLane="0" toLane="0" via=":0_12_0" tl="0" linkIndex="12" dir="r" state="o"/>
    <connection from="1i" to="2o" fromLane="0" toLane="1" via=":0_13_0" tl="0" linkIndex="13" dir="s" state="o"/>
    <connection from="1i" to="4o" fromLane="0" toLane="0" via=":0_14_0" tl="0" linkIndex="14" dir="l" state="o"/>
    <connection from="1i" to="1o" fromLane="0" toLane="0" via=":0_15_0" tl="0" linkIndex="15" dir="t" state="o"/>
    <connection from="1o" to="1i" fromLane="0" toLane="0" via=":1_0_0" dir="t" state="M"/>
    <connection from="2i" to="4o" fromLane="0" toLane="0" via=":0_4_0" tl="0" linkIndex="4" dir="r" state="o"/>
    <connection from="2i" to="1o" fromLane="0" toLane="0" via=":0_5_0" tl="0" linkIndex="5" dir="s" state="o"/>
    <connection from="2i" to="3o" fromLane="0" toLane="0" via=":0_6_0" tl="0" linkIndex="6" dir="l" state="o"/>
    <connection from="2i" to="2o" fromLane="0" toLane="1" via=":0_7_0" tl="0" linkIndex="7" dir="t" state="o"/>
    <connection from="2o" to="7o" fromLane="0" toLane="0" via=":2_12_0" tl="2" linkIndex="12" dir="r" state="o"/>
    <connection from="2o" to="6o" fromLane="0" toLane="0" via=":2_13_0" tl="2" linkIndex="13" dir="s" state="o"/>
    <connection from="2o" to="6o" fromLane="1" toLane="1" via=":2_13_1" tl="2" linkIndex="14" dir="s" state="o"/>
    <connection from="2o" to="8o" fromLane="1" toLane="0" via=":2_15_0" tl="2" linkIndex="15" dir="l" state="o"/>
    <connection from="2o" to="2i" fromLane="1" toLane="0" via=":2_16_0" tl="2" linkIndex="16" dir="t" state="o"/>
    <connection from="3i" to="2o" fromLane="0" toLane="0" via=":0_8_0" tl="0" linkIndex="8" dir="r" state="o"/>
    <connection from="3i" to="4o" fromLane="0" toLane="0" via=":0_9_0" tl="0" linkIndex="9" dir="s" state="o"/>
    <connection from="3i" to="1o" fromLane="0" toLane="0" via=":0_10_0" tl="0" linkIndex="10" dir="l" state="o"/>
    <connection from="3i" to="3o" fromLane="0" toLane="0" via=":0_11_0" tl="0" linkIndex="11" dir="t" state="o"/>
    <connection from="3o" to="3i" fromLane="0" toLane="0" via=":3_0_0" dir="t" state="M"/>
    <connection from="4i" to="1o" fromLane="0" toLane="0" via=":0_0_0" tl="0" linkIndex="0" dir="r" state="o"/>
    <connection from="4i" to="3o" fromLane="0" toLane="0" via=":0_1_0" tl="0" linkIndex="1" dir="s" state="o"/>
    <connection from="4i" to="2o" fromLane="0" toLane="1" via=":0_2_0" tl="0" linkIndex="2" dir="l" state="o"/>
    <connection from="4i" to="4o" fromLane="0" toLane="0" via=":0_3_0" tl="0" linkIndex="3" dir="t" state="o"/>
    <connection from="4o" to="4i" fromLane="0" toLane="0" via=":4_0_0" dir="t" state="M"/>
    <connection from="6i" to="8o" fromLane="0" toLane="0" via=":2_4_0" tl="2" linkIndex="4" dir="r" state="o"/>
    <connection from="6i" to="2i" fromLane="0" toLane="0" via=":2_5_0" tl="2" linkIndex="5" dir="s" state="o"/>
    <connection from="6i" to="7o" fromLane="0" toLane="0" via=":2_6_0" tl="2" linkIndex="6" dir="l" state="o"/>
    <connection from="6i" to="6o" fromLane="0" toLane="1" via=":2_7_0" tl="2" linkIndex="7" dir="t" state="o"/>
    <connection from="6o" to="6i" fromLane="1" toLane="0" via=":6_0_0" dir="t" state="M"/>
    <connection from="7i" to="6o" fromLane="0" toLane="0" via=":2_8_0" tl="2" linkIndex="8" dir="r" state="o"/>
    <connection from="7i" to="8o" fromLane="0" toLane="0" via=":2_9_0" tl="2" linkIndex="9" dir="s" state="o"/>
    <connection from="7i" to="2i" fromLane="0" toLane="0" via=":2_10_0" tl="2" linkIndex="10" dir="l" state="o"/>
    <connection from="7i" to="7o" fromLane="0" toLane="0" via=":2_11_0" tl="2" linkIndex="11" dir="t" state="o"/>
    <connection from="7o" to="7i" fromLane="0" toLane="0" via=":7_0_0" dir="t" state="M"/>
    <connection from="8i" to="2i" fromLane="0" toLane="0" via=":2_0_0" tl="2" linkIndex="0" dir="r" state="o"/>
    <connection from="8i" to="7o" fromLane="0" toLane="0" via=":2_1_0" tl="2" linkIndex="1" dir="s" state="o"/>
    <connection from="8i" to="6o" fromLane="0" toLane="1" via=":2_2_0" tl="2" linkIndex="2" dir="l" state="o"/>
    <connection from="8i" to="8o" fromLane="0" toLane="0" via=":2_3_0" tl="2" linkIndex="3" dir="t" state="o"/>
    <connection from="8o" to="8i" fromLane="0" toLane="0" via=":8_0_0" dir="t" state="M"/>

    <connection from=":0_0" to="1o" fromLane="0" toLane="0" dir="s" state="M"/>
    <connection from=":0_1" to="3o" fromLane="0" toLane="0" dir="s" state="M"/>
    <connection from=":0_2" to="2o" fromLane="0" toLane="1" via=":0_16_0" dir="s" state="m"/>
    <connection from=":0_16" to="2o" fromLane="0" toLane="1" dir="s" state="M"/>
    <connection from=":0_3" to="4o" fromLane="0" toLane="0" via=":0_17_0" dir="s" state="m"/>
    <connection from=":0_17" to="4o" fromLane="0" toLane="0" dir="s" state="M"/>
    <connection from=":0_4" to="4o" fromLane="0" toLane="0" dir="s" state="M"/>
    <connection from=":0_5" to="1o" fromLane="0" toLane="0" dir="s" state="M"/>
    <connection from=":0_6" to="3o" fromLane="0" toLane="0" via=":0_18_0" dir="s" state="m"/>
    <connection from=":0_18" to="3o" fromLane="0" toLane="0" dir="s" state="M"/>
    <connection from=":0_7" to="2o" fromLane="0" toLane="1" via=":0_19_0" dir="s" state="m"/>
    <connection from=":0_19" to="2o" fromLane="0" toLane="1" dir="s" state="M"/>
    <connection from=":0_8" to="2o" fromLane="0" toLane="0" dir="s" state="M"/>
    <connection from=":0_9" to="4o" fromLane="0" toLane="0" dir="s" state="M"/>
    <connection from=":0_10" to="1o" fromLane="0" toLane="0" via=":0_20_0" dir="s" state="m"/>
    <connection from=":0_20" to="1o" fromLane="0" toLane="0" dir="s" state="M"/>
    <connection from=":0_11" to="3o" fromLane="0" toLane="0" via=":0_21_0" dir="s" state="m"/>
    <connection from=":0_21" to="3o" fromLane="0" toLane="0" dir="s" state="M"/>
    <connection from=":0_12" to="3o" fromLane="0" toLane="0" dir="s" state="M"/>
    <connection from=":0_13" to="2o" fromLane="0" toLane="1" dir="s" state="M"/>
    <connection from=":0_14" to="4o" fromLane="0" toLane="0" via=":0_22_0" dir="s" state="m"/>
    <connection from=":0_22" to="4o" fromLane="0" toLane="0" dir="s" state="M"/>
    <connection from=":0_15" to="1o" fromLane="0" toLane="0" via=":0_23_0" dir="s" state="m"/>
    <connection from=":0_23" to="1o" fromLane="0" toLane="0" dir="s" state="M"/>
    <connection from=":1_0" to="1i" fromLane="0" toLane="0" dir="s" state="M"/>
    <connection from=":2_0" to="2i" fromLane="0" toLane="0" dir="s" state="M"/>
    <connection from=":2_1" to="7o" fromLane="0" toLane="0" dir="s" state="M"/>
    <connection from=":2_2" to="6o" fromLane="0" toLane="1" via=":2_17_0" dir="s" state="m"/>
    <connection from=":2_17" to="6o" fromLane="0" toLane="1" dir="s" state="M"/>
    <connection from=":2_3" to="8o" fromLane="0" toLane="0" via=":2_18_0" dir="s" state="m"/>
    <connection from=":2_18" to="8o" fromLane="0" toLane="0" dir="s" state="M"/>
    <connection from=":2_4" to="8o" fromLane="0" toLane="0" dir="s" state="M"/>
    <connection from=":2_5" to="2i" fromLane="0" toLane="0" dir="s" state="M"/>
    <connection from=":2_6" to="7o" fromLane="0" toLane="0" via=":2_19_0" dir="s" state="m"/>
    <connection from=":2_19" to="7o" fromLane="0" toLane="0" dir="s" state="M"/>
    <connection from=":2_7" to="6o" fromLane="0" toLane="1" via=":2_20_0" dir="s" state="m"/>
    <connection from=":2_20" to="6o" fromLane="0" toLane="1" dir="s" state="M"/>
    <connection from=":2_8" to="6o" fromLane="0" toLane="0" dir="s" state="M"/>
    <connection from=":2_9" to="8o" fromLane="0" toLane="0" dir="s" state="M"/>
    <connection from=":2_10" to="2i" fromLane="0" toLane="0" via=":2_21_0" dir="s" state="m"/>
    <connection from=":2_21" to="2i" fromLane="0" toLane="0" dir="s" state="M"/>
    <connection from=":2_11" to="7o" fromLane="0" toLane="0" via=":2_22_0" dir="s" state="m"/>
    <connection from=":2_22" to="7o" fromLane="0" toLane="0" dir="s" state="M"/>
    <connection from=":2_12" to="7o" fromLane="0" toLane="0" dir="s" state="M"/>
    <connection from=":2_13" to="6o" fromLane="0" toLane="0" dir="s" state="M"/>
    <connection from=":2_13" to="6o" fromLane="1" toLane="1" dir="s" state="M"/>
    <connection from=":2_15" to="8o" fromLane="0" toLane="0" via=":2_23_0" dir="s" state="m"/>
    <connection from=":2_23" to="8o" fromLane="0" toLane="0" dir="s" state="M"/>
    <connection from=":2_16" to="2i" fromLane="0" toLane="0" via=":2_24_0" dir="s" state="m"/>
    <connection from=":2_24" to="2i" fromLane="0" toLane="0" dir="s" state="M"/>
    <connection from=":3_0" to="3i" fromLane="0" toLane="0" dir="s" state="M"/>