<?xml version="1.0" encoding="UTF-8"?>

<!-- generated on 7/29/2016 3:41:45 PM by Netedit Version 0.25.0
<?xml version="1.0" encoding="UTF-8"?>

<configuration xmlns:xsi="http://www.w3.org/2001/XMLSchema-instance" xsi:noNamespaceSchemaLocation="http://sumo.dlr.de/xsd/netedit.exeConfiguration.xsd">

    <input>
        <sumo-net-file value="C:\Users\ArminAskari\Desktop\Berkeley%202013-2017\Research\CVT\ArminModify\Timing_plan_simulation\Throughput\cross2ltl\net_bu2_100.net.xml"/>
    </input>

    <output>
        <output-file value="C:\Users\ArminAskari\Desktop\Berkeley%202013-2017\Research\CVT\ArminModify\Timing_plan_simulation\Throughput\cross2ltl\net_bu2_100.net.xml"/>
    </output>

    <processing>
        <no-turnarounds value="true"/>
        <offset.disable-normalization value="true"/>
        <lefthand value="false"/>
        <junctions.corner-detail value="0"/>
    </processing>

</configuration>
-->

<net version="0.25" xmlns:xsi="http://www.w3.org/2001/XMLSchema-instance" xsi:noNamespaceSchemaLocation="http://sumo.dlr.de/xsd/net_file.xsd">

    <location netOffset="500.00,500.00" convBoundary="0.00,0.00,1500.00,1009.49" origBoundary="-500.00,-500.00,1000.00,500.00" projParameter="!"/>

    <edge id=":0_0" function="internal">
        <lane id=":0_0_0" index="0" speed="20.00" length="5.00" shape="498.35,504.75 498.16,503.39 497.58,502.43 496.61,501.84 495.25,501.65"/>
    </edge>
    <edge id=":0_1" function="internal">
        <lane id=":0_1_0" index="0" speed="20.00" length="9.50" shape="498.35,504.75 498.35,495.25"/>
    </edge>
    <edge id=":0_2" function="internal">
        <lane id=":0_2_0" index="0" speed="16.95" length="5.27" shape="498.35,504.75 498.75,501.95 499.96,499.95 500.05,499.90"/>
    </edge>
    <edge id=":0_3" function="internal">
        <lane id=":0_3_0" index="0" speed="20.00" length="2.41" shape="498.35,504.75 499.18,503.51 500.00,503.10"/>
    </edge>
    <edge id=":0_15" function="internal">
        <lane id=":0_15_0" index="0" speed="16.95" length="5.08" shape="500.05,499.90 501.98,498.77 504.80,498.40"/>
    </edge>
    <edge id=":0_16" function="internal">
        <lane id=":0_16_0" index="0" speed="20.00" length="2.41" shape="500.00,503.10 500.82,503.51 501.65,504.75"/>
    </edge>
    <edge id=":0_4" function="internal">
        <lane id=":0_4_0" index="0" speed="16.95" length="5.01" shape="504.77,501.65 503.40,501.85 502.43,502.43 501.84,503.40 501.65,504.75"/>
    </edge>
    <edge id=":0_5" function="internal">
        <lane id=":0_5_0" index="0" speed="16.95" length="9.52" shape="504.77,501.65 495.25,501.65"/>
    </edge>
    <edge id=":0_6" function="internal">
        <lane id=":0_6_0" index="0" speed="16.95" length="5.17" shape="504.77,501.65 501.96,501.25 499.95,500.05"/>
    </edge>
    <edge id=":0_17" function="internal">
        <lane id=":0_17_0" index="0" speed="16.95" length="5.16" shape="499.95,500.05 498.75,498.05 498.35,495.25"/>
    </edge>
    <edge id=":0_7" function="internal">
        <lane id=":0_7_0" index="0" speed="16.95" length="5.07" shape="501.65,495.25 501.85,496.62 502.44,497.59 503.42,498.19 504.80,498.40"/>
    </edge>
    <edge id=":0_8" function="internal">
        <lane id=":0_8_0" index="0" speed="20.00" length="9.50" shape="501.65,495.25 501.65,504.75"/>
    </edge>
    <edge id=":0_9" function="internal">
        <lane id=":0_9_0" index="0" speed="20.00" length="5.28" shape="501.65,495.25 501.25,498.05 500.05,500.05 499.95,500.11"/>
    </edge>
    <edge id=":0_10" function="internal">
        <lane id=":0_10_0" index="0" speed="20.00" length="2.41" shape="501.65,495.25 500.82,496.49 500.00,496.90"/>
    </edge>
    <edge id=":0_18" function="internal">
        <lane id=":0_18_0" index="0" speed="20.00" length="5.04" shape="499.95,500.11 498.05,501.25 495.25,501.65"/>
    </edge>
    <edge id=":0_19" function="internal">
        <lane id=":0_19_0" index="0" speed="20.00" length="2.41" shape="500.00,496.90 499.18,496.49 498.35,495.25"/>
    </edge>
    <edge id=":0_11" function="internal">
        <lane id=":0_11_0" index="0" speed="20.00" length="5.00" shape="495.25,498.35 496.61,498.16 497.58,497.58 498.16,496.61 498.35,495.25"/>
    </edge>
    <edge id=":0_12" function="internal">
        <lane id=":0_12_0" index="0" speed="16.95" length="9.55" shape="495.25,498.35 504.80,498.40"/>
    </edge>
    <edge id=":0_13" function="internal">
        <lane id=":0_13_0" index="0" speed="20.00" length="5.28" shape="495.25,498.35 498.05,498.75 500.05,499.95 500.11,500.05"/>
    </edge>
    <edge id=":0_14" function="internal">
        <lane id=":0_14_0" index="0" speed="20.00" length="2.41" shape="495.25,498.35 496.49,499.18 496.90,500.00"/>
    </edge>
    <edge id=":0_20" function="internal">
        <lane id=":0_20_0" index="0" speed="20.00" length="5.04" shape="500.11,500.05 501.25,501.95 501.65,504.75"/>
    </edge>
    <edge id=":0_21" function="internal">
        <lane id=":0_21_0" index="0" speed="20.00" length="2.41" shape="496.90,500.00 496.49,500.82 495.25,501.65"/>
    </edge>
    <edge id=":2_0" function="internal">
        <lane id=":2_0_0" index="0" speed="16.95" length="7.54" shape="601.78,506.86 600.49,504.61 599.21,503.00 597.94,502.03 596.69,501.71"/>
    </edge>
    <edge id=":2_1" function="internal">
        <lane id=":2_1_0" index="0" speed="20.00" length="14.50" shape="601.78,506.86 600.51,503.44 600.12,499.97 600.63,496.46 602.02,492.91"/>
    </edge>
    <edge id=":2_2" function="internal">
        <lane id=":2_2_0" index="0" speed="20.00" length="7.69" shape="601.78,506.86 600.51,503.16 600.96,500.52 601.84,499.88"/>
    </edge>
    <edge id=":2_3" function="internal">
        <lane id=":2_3_0" index="0" speed="20.00" length="2.65" shape="601.78,506.86 601.96,505.38 602.51,504.64 602.75,504.64"/>
    </edge>
    <edge id=":2_15" function="internal">
        <lane id=":2_15_0" index="0" speed="20.00" length="5.53" shape="601.84,499.88 603.13,498.94 607.03,498.41"/>
    </edge>
    <edge id=":2_16" function="internal">
        <lane id=":2_16_0" index="0" speed="20.00" length="2.17" shape="602.75,504.64 603.43,504.64 604.73,505.37"/>
    </edge>
    <edge id=":2_4" function="internal">
        <lane id=":2_4_0" index="0" speed="20.00" length="5.74" shape="607.03,501.71 605.33,501.94 604.38,502.62 604.18,503.77 604.73,505.37"/>
    </edge>
    <edge id=":2_5" function="internal">
        <lane id=":2_5_0" index="0" speed="16.95" length="10.33" shape="607.03,501.71 604.01,501.71 601.86,501.71 599.71,501.71 596.69,501.71"/>
    </edge>
    <edge id=":2_6" function="internal">
        <lane id=":2_6_0" index="0" speed="20.00" length="5.81" shape="607.03,501.71 603.13,501.16 601.65,500.01"/>
    </edge>
    <edge id=":2_7" function="internal">
        <lane id=":2_7_0" index="0" speed="20.00" length="2.41" shape="607.03,501.71 605.79,500.88 605.38,500.06"/>
    </edge>
    <edge id=":2_17" function="internal">
        <lane id=":2_17_0" index="0" speed="20.00" length="7.68" shape="601.65,500.01 601.00,499.51 600.63,496.76 602.02,492.91"/>
    </edge>
    <edge id=":2_18" function="internal">
        <lane id=":2_18_0" index="0" speed="20.00" length="2.41" shape="605.38,500.06 605.79,499.23 607.03,498.41"/>
    </edge>
    <edge id=":2_8" function="internal">
        <lane id=":2_8_0" index="0" speed="20.00" length="5.98" shape="604.96,494.43 604.31,496.17 604.45,497.41 605.35,498.16 607.03,498.41"/>
    </edge>
    <edge id=":2_9" function="internal">
        <lane id=":2_9_0" index="0" speed="20.00" length="11.38" shape="604.96,494.43 603.85,497.23 603.44,499.98 603.73,502.70 604.73,505.37"/>
    </edge>
    <edge id=":2_10" function="internal">
        <lane id=":2_10_0" index="0" speed="16.95" length="5.44" shape="604.96,494.43 603.03,497.61 601.89,498.89"/>
    </edge>
    <edge id=":2_11" function="internal">
        <lane id=":2_11_0" index="0" speed="20.00" length="2.28" shape="604.96,494.43 603.66,495.15 602.87,495.14"/>
    </edge>
    <edge id=":2_19" function="internal">
        <lane id=":2_19_0" index="0" speed="16.95" length="6.10" shape="601.89,498.89 601.01,499.89 598.90,501.25 596.69,501.71"/>
    </edge>
    <edge id=":2_20" function="internal">
        <lane id=":2_20_0" index="0" speed="20.00" length="2.54" shape="602.87,495.14 602.73,495.13 602.19,494.39 602.02,492.91"/>
    </edge>
    <edge id=":2_12" function="internal">
        <lane id=":2_12_0" index="0" speed="16.95" length="6.05" shape="596.70,495.11 598.60,494.97 600.12,494.56 601.27,493.87 602.02,492.91"/>
    </edge>
    <edge id=":2_13" function="internal">
        <lane id=":2_13_0" index="0" speed="16.95" length="10.33" shape="596.69,498.41 599.79,498.41 601.92,498.41 604.03,498.41 607.03,498.41"/>
    </edge>
    <edge id=":2_14" function="internal">
        <lane id=":2_14_0" index="0" speed="16.95" length="4.68" shape="596.69,498.41 598.89,498.85 600.96,500.15"/>
    </edge>
    <edge id=":2_21" function="internal">
        <lane id=":2_21_0" index="0" speed="16.95" length="6.47" shape="600.96,500.15 602.90,502.33 604.73,505.37"/>
    </edge>
    <edge id=":6_0" function="internal">
        <lane id=":6_0_0" index="0" speed="20.00" length="4.82" shape="1500.00,498.35 1501.24,499.17 1501.65,500.00 1501.24,500.82 1500.00,501.65"/>
    </edge>
    <edge id=":7_0" function="internal">
        <lane id=":7_0_0" index="0" speed="20.00" length="4.82" shape="856.45,0.23 857.75,-0.49 858.68,-0.48 859.22,0.27 859.39,1.75"/>
    </edge>
    <edge id=":8_0" function="internal">
        <lane id=":8_0_0" index="0" speed="20.00" length="4.82" shape="859.47,1008.74 859.29,1010.22 858.75,1010.96 857.82,1010.97 856.53,1010.24"/>
    </edge>
    <edge id=":gneJ0_0" function="internal">
        <lane id=":gneJ0_0_0" index="0" speed="13.89" length="3.73" shape="508.62,498.44 511.62,495.15"/>
        <lane id=":gneJ0_0_1" index="1" speed="13.89" length="3.73" shape="508.62,498.44 511.63,498.45"/>
    </edge>

    <edge id="1i" from="1" to="0" priority="78">
        <lane id="1i_0" index="0" speed="20.00" length="495.25" shape="0.00,498.35 495.25,498.35"/>
    </edge>
    <edge id="1o" from="0" to="1" priority="46">
        <lane id="1o_0" index="0" speed="20.00" length="495.25" shape="495.25,501.65 0.00,501.65"/>
    </edge>
    <edge id="2o" from="0" to="gneJ0" priority="1">
        <lane id="2o_0" index="0" speed="13.89" length="3.82" shape="504.80,498.40 508.62,498.44"/>
    </edge>
    <edge id="2o.7" from="gneJ0" to="2" priority="1">
        <lane id="2o.7_0" index="0" speed="13.89" length="85.07" shape="511.62,495.15 596.70,495.11"/>
        <lane id="2o.7_1" index="1" speed="13.89" length="85.07" shape="511.63,498.45 596.69,498.41"/>
    </edge>
    <edge id="3i" from="3" to="0" priority="78">
        <lane id="3i_0" index="0" speed="20.00" length="495.25" shape="501.65,0.00 501.65,495.25"/>
    </edge>
    <edge id="3o" from="0" to="3" priority="46">
        <lane id="3o_0" index="0" speed="20.00" length="495.25" shape="498.35,495.25 498.35,0.00"/>
    </edge>
    <edge id="4i" from="4" to="0" priority="78">
        <lane id="4i_0" index="0" speed="20.00" length="495.25" shape="498.35,1000.00 498.35,504.75"/>
    </edge>
    <edge id="4o" from="0" to="4" priority="46">
        <lane id="4o_0" index="0" speed="20.00" length="495.25" shape="501.65,504.75 501.65,1000.00"/>
    </edge>
    <edge id="6i" from="6" to="2" priority="78">
        <lane id="6i_0" index="0" speed="20.00" length="892.97" shape="1500.00,501.65 607.03,501.71"/>
    </edge>
    <edge id="6o" from="2" to="6" priority="46">
        <lane id="6o_0" index="0" speed="20.00" length="892.97" shape="607.03,498.41 1500.00,498.35"/>
    </edge>
    <edge id="7i" from="7" to="2" priority="78">
        <lane id="7i_0" index="0" speed="20.00" length="554.50" shape="859.39,1.75 604.96,494.43"/>
    </edge>
    <edge id="7o" from="2" to="7" priority="46">
        <lane id="7o_0" index="0" speed="20.00" length="554.50" shape="602.02,492.91 856.45,0.23"/>
    </edge>
    <edge id="8i" from="8" to="2" priority="78">
        <lane id="8i_0" index="0" speed="20.00" length="564.16" shape="856.53,1010.24 601.78,506.86"/>
    </edge>
    <edge id="8o" from="2" to="8" priority="46">
        <lane id="8o_0" index="0" speed="20.00" length="564.16" shape="604.73,505.37 859.47,1008.74"/>
    </edge>
    <edge id="gneE34" from="2" to="0" priority="1">
        <lane id="gneE34_0" index="0" speed="13.89" length="91.93" shape="596.69,501.71 504.77,501.65"/>
    </edge>

    <tlLogic id="0" type="static" programID="0" offset="0">
        <phase duration="27" state="GGggrrrGGggrrrr"/>
        <phase duration="6" state="yyggrrryyggrrrr"/>
        <phase duration="6" state="rrGGrrrrrGGrrrr"/>
        <phase duration="6" state="rryyrrrrryyrrrr"/>
        <phase duration="27" state="rrrrGGgrrrrGGgg"/>
        <phase duration="6" state="rrrryygrrrryygg"/>
        <phase duration="6" state="rrrrrrGrrrrrrGG"/>
        <phase duration="6" state="rrrrrryrrrrrryy"/>
    </tlLogic>
    <tlLogic id="2" type="static" programID="0" offset="0">
        <phase duration="27" state="GGggrrrrGGggrrr"/>
        <phase duration="6" state="yyggrrrryyggrrr"/>
        <phase duration="6" state="rrGGrrrrrrGGrrr"/>
        <phase duration="6" state="rryyrrrrrryyrrr"/>
        <phase duration="27" state="rrrrGGggrrrrGGg"/>
        <phase duration="6" state="rrrryyggrrrryyg"/>
        <phase duration="6" state="rrrrrrGGrrrrrrG"/>
        <phase duration="6" state="rrrrrryyrrrrrry"/>
    </tlLogic>

    <junction id="0" type="traffic_light" x="500.00" y="500.00" incLanes="4i_0 gneE34_0 3i_0 1i_0" intLanes=":0_0_0 :0_1_0 :0_15_0 :0_16_0 :0_4_0 :0_5_0 :0_17_0 :0_7_0 :0_8_0 :0_18_0 :0_19_0 :0_11_0 :0_12_0 :0_20_0 :0_21_0" shape="496.75,504.75 503.25,504.75 504.75,503.25 504.81,496.80 503.25,495.25 496.75,495.25 495.25,496.75 495.25,503.25">
        <request index="0" response="000000000000000" foes="100001000100000" cont="0"/>
        <request index="1" response="000000000000000" foes="011111001100000" cont="0"/>
        <request index="2" response="000000110000000" foes="011000111100000" cont="1"/>
        <request index="3" response="010000100010000" foes="010000100010000" cont="1"/>
        <request index="4" response="000000100000000" foes="010000100001000" cont="0"/>
        <request index="5" response="000001100000111" foes="110001100000111" cont="0"/>
        <request index="6" response="001101100000110" foes="001111100000110" cont="1"/>
        <request index="7" response="000000000000000" foes="001000000000100" cont="0"/>
        <request index="8" response="000000000000000" foes="011000001111100" cont="0"/>
        <request index="9" response="000000000000011" foes="111000001100011" cont="1"/>
        <request index="10" response="000100001000010" foes="000100001000010" cont="1"/>
        <request index="11" response="000000000000010" foes="000010001000010" cont="0"/>
        <request index="12" response="000001110000110" foes="000001111000110" cont="0"/>
        <request index="13" response="000001100110110" foes="000001100111110" cont="1"/>
        <request index="14" response="000001000100001" foes="000001000100001" cont="1"/>
    </junction>
    <junction id="1" type="dead_end" x="0.00" y="500.00" incLanes="1o_0" intLanes="" shape="0.00,499.95 0.00,496.75 0.00,503.25 0.00,500.05"/>
    <junction id="2" type="traffic_light" x="600.19" y="500.06" incLanes="8i_0 6i_0 7i_0 2o.7_0 2o.7_1" intLanes=":2_0_0 :2_1_0 :2_15_0 :2_16_0 :2_4_0 :2_5_0 :2_17_0 :2_18_0 :2_8_0 :2_9_0 :2_19_0 :2_20_0 :2_12_0 :2_13_0 :2_21_0" shape="600.35,507.58 606.15,504.65 607.03,503.31 607.03,496.81 606.38,495.16 600.60,492.18 596.70,493.51 596.69,503.31">
        <request index="0" response="000000000000000" foes="000010000100000" cont="0"/>
        <request index="1" response="000000000000000" foes="111110001100000" cont="0"/>
        <request index="2" response="000001100000000" foes="110001111100000" cont="1"/>
        <request index="3" response="100001000010000" foes="100001000010000" cont="1"/>
        <request index="4" response="000001000000000" foes="100001000001000" cont="0"/>
        <request index="5" response="000011000000111" foes="100011000000111" cont="0"/>
        <request index="6" response="011011000000110" foes="011111000000110" cont="1"/>
        <request index="7" response="010000100000100" foes="010000100000100" cont="1"/>
        <request index="8" response="000000000000000" foes="010000010000100" cont="0"/>
        <request index="9" response="000000000000000" foes="110000001111100" cont="0"/>
        <request index="10" response="000000000000011" foes="110000001100011" cont="1"/>
        <request index="11" response="001000001000010" foes="001000001000010" cont="1"/>
        <request index="12" response="000000000000010" foes="000100001000010" cont="0"/>
        <request index="13" response="000011100000110" foes="000011111000110" cont="0"/>
        <request index="14" response="000011000110110" foes="000011000111110" cont="1"/>
    </junction>
    <junction id="3" type="dead_end" x="500.00" y="0.00" incLanes="3o_0" intLanes="" shape="500.05,0.00 503.25,0.00 496.75,0.00 499.95,0.00"/>
    <junction id="4" type="dead_end" x="500.00" y="1000.00" incLanes="4o_0" intLanes="" shape="499.95,1000.00 496.75,1000.00 503.25,1000.00 500.05,1000.00"/>
    <junction id="6" type="priority" x="1500.00" y="500.00" incLanes="6o_0" intLanes=":6_0_0" shape="1500.00,500.05 1500.00,503.25 1500.00,496.75 1500.00,499.95">
        <request index="0" response="0" foes="0" cont="0"/>
    </junction>
    <junction id="7" type="priority" x="857.92" y="0.99" incLanes="7o_0" intLanes=":7_0_0" shape="857.96,1.01 860.81,2.48 855.03,-0.50 857.88,0.97">
        <request index="0" response="0" foes="0" cont="0"/>
    </junction>
    <junction id="8" type="priority" x="858.00" y="1009.49" incLanes="8o_0" intLanes=":8_0_0" shape="857.96,1009.51 855.10,1010.96 860.90,1008.02 858.04,1009.47">
        <request index="0" response="0" foes="0" cont="0"/>
    </junction>
    <junction id="gneJ0" type="priority" x="510.12" y="500.10" incLanes="2o_0" intLanes=":gneJ0_0_0 :gneJ0_0_1" shape="511.63,500.05 511.62,493.55 508.64,496.84 508.61,500.04">
        <request index="0" response="00" foes="00" cont="0"/>
        <request index="1" response="00" foes="00" cont="0"/>
    </junction>

    <junction id=":0_15_0" type="internal" x="500.05" y="499.90" incLanes=":0_2_0 3i_0" intLanes=":0_5_0 :0_6_0 :0_7_0 :0_8_0 :0_12_0 :0_13_0"/>
    <junction id=":0_16_0" type="internal" x="500.00" y="503.10" incLanes=":0_3_0 1i_0 3i_0 gneE34_0" intLanes=":0_4_0 :0_8_0 :0_13_0"/>
    <junction id=":0_17_0" type="internal" x="499.95" y="500.05" incLanes=":0_6_0 1i_0" intLanes=":0_1_0 :0_2_0 :0_8_0 :0_9_0 :0_10_0 :0_11_0 :0_12_0"/>
    <junction id=":0_18_0" type="internal" x="499.95" y="500.11" incLanes=":0_9_0 4i_0" intLanes=":0_0_0 :0_1_0 :0_5_0 :0_6_0 :0_12_0 :0_13_0 :0_14_0"/>
    <junction id=":0_19_0" type="internal" x="500.00" y="496.90" incLanes=":0_10_0 1i_0 4i_0 gneE34_0" intLanes=":0_1_0 :0_6_0 :0_11_0"/>
    <junction id=":0_20_0" type="internal" x="500.11" y="500.05" incLanes=":0_13_0 gneE34_0" intLanes=":0_1_0 :0_2_0 :0_3_0 :0_4_0 :0_5_0 :0_8_0 :0_9_0"/>
    <junction id=":0_21_0" type="internal" x="496.90" y="500.00" incLanes=":0_14_0 3i_0 4i_0 gneE34_0" intLanes=":0_0_0 :0_5_0 :0_9_0"/>
    <junction id=":2_15_0" type="internal" x="601.84" y="499.88" incLanes=":2_2_0 7i_0" intLanes=":2_5_0 :2_6_0 :2_7_0 :2_8_0 :2_9_0 :2_13_0 :2_14_0"/>
    <junction id=":2_16_0" type="internal" x="602.75" y="504.64" incLanes=":2_3_0 2o.7_1 6i_0 7i_0" intLanes=":2_4_0 :2_9_0 :2_14_0"/>
    <junction id=":2_17_0" type="internal" x="601.65" y="500.01" incLanes=":2_6_0 2o.7_0 2o.7_1" intLanes=":2_1_0 :2_2_0 :2_9_0 :2_10_0 :2_11_0 :2_12_0 :2_13_0"/>
    <junction id=":2_18_0" type="internal" x="605.38" y="500.06" incLanes=":2_7_0 2o.7_1 7i_0 8i_0" intLanes=":2_2_0 :2_8_0 :2_13_0"/>
    <junction id=":2_19_0" type="internal" x="601.89" y="498.89" incLanes=":2_10_0 8i_0" intLanes=":2_0_0 :2_1_0 :2_5_0 :2_6_0 :2_13_0 :2_14_0"/>
    <junction id=":2_20_0" type="internal" x="602.87" y="495.14" incLanes=":2_11_0 2o.7_0 6i_0 8i_0" intLanes=":2_1_0 :2_6_0 :2_12_0"/>
    <junction id=":2_21_0" type="internal" x="600.96" y="500.15" incLanes=":2_14_0 6i_0" intLanes=":2_1_0 :2_2_0 :2_3_0 :2_4_0 :2_5_0 :2_9_0 :2_10_0"/>

    <connection from="1i" to="3o" fromLane="0" toLane="0" via=":0_11_0" tl="0" linkIndex="11" dir="r" state="o"/>
    <connection from="1i" to="2o" fromLane="0" toLane="0" via=":0_12_0" tl="0" linkIndex="12" dir="s" state="o"/>
    <connection from="1i" to="4o" fromLane="0" toLane="0" via=":0_13_0" tl="0" linkIndex="13" dir="l" state="o"/>
    <connection from="1i" to="1o" fromLane="0" toLane="0" via=":0_14_0" tl="0" linkIndex="14" dir="t" state="o"/>
    <connection from="2o" to="2o.7" fromLane="0" toLane="0" via=":gneJ0_0_0" dir="s" state="M"/>
    <connection from="2o" to="2o.7" fromLane="0" toLane="1" via=":gneJ0_0_1" dir="s" state="M"/>
    <connection from="2o.7" to="7o" fromLane="0" toLane="0" via=":2_12_0" tl="2" linkIndex="12" dir="r" state="o"/>
    <connection from="2o.7" to="6o" fromLane="1" toLane="0" via=":2_13_0" tl="2" linkIndex="13" dir="s" state="o"/>
    <connection from="2o.7" to="8o" fromLane="1" toLane="0" via=":2_14_0" tl="2" linkIndex="14" dir="l" state="o"/>
    <connection from="3i" to="2o" fromLane="0" toLane="0" via=":0_7_0" tl="0" linkIndex="7" dir="r" state="o"/>
    <connection from="3i" to="4o" fromLane="0" toLane="0" via=":0_8_0" tl="0" linkIndex="8" dir="s" state="o"/>
    <connection from="3i" to="1o" fromLane="0" toLane="0" via=":0_9_0" tl="0" linkIndex="9" dir="l" state="o"/>
    <connection from="3i" to="3o" fromLane="0" toLane="0" via=":0_10_0" tl="0" linkIndex="10" dir="t" state="o"/>
    <connection from="4i" to="1o" fromLane="0" toLane="0" via=":0_0_0" tl="0" linkIndex="0" dir="r" state="o"/>
    <connection from="4i" to="3o" fromLane="0" toLane="0" via=":0_1_0" tl="0" linkIndex="1" dir="s" state="o"/>
    <connection from="4i" to="2o" fromLane="0" toLane="0" via=":0_2_0" tl="0" linkIndex="2" dir="l" state="o"/>
    <connection from="4i" to="4o" fromLane="0" toLane="0" via=":0_3_0" tl="0" linkIndex="3" dir="t" state="o"/>
    <connection from="6i" to="8o" fromLane="0" toLane="0" via=":2_4_0" tl="2" linkIndex="4" dir="r" state="o"/>
    <connection from="6i" to="gneE34" fromLane="0" toLane="0" via=":2_5_0" tl="2" linkIndex="5" dir="s" state="o"/>
    <connection from="6i" to="7o" fromLane="0" toLane="0" via=":2_6_0" tl="2" linkIndex="6" dir="l" state="o"/>
    <connection from="6i" to="6o" fromLane="0" toLane="0" via=":2_7_0" tl="2" linkIndex="7" dir="t" state="o"/>
    <connection from="6o" to="6i" fromLane="0" toLane="0" via=":6_0_0" dir="t" state="M"/>
    <connection from="7i" to="6o" fromLane="0" toLane="0" via=":2_8_0" tl="2" linkIndex="8" dir="r" state="o"/>
    <connection from="7i" to="8o" fromLane="0" toLane="0" via=":2_9_0" tl="2" linkIndex="9" dir="R" state="o"/>
    <connection from="7i" to="gneE34" fromLane="0" toLane="0" via=":2_10_0" tl="2" linkIndex="10" dir="l" state="o"/>
    <connection from="7i" to="7o" fromLane="0" toLane="0" via=":2_11_0" tl="2" linkIndex="11" dir="t" state="o"/>
    <connection from="7o" to="7i" fromLane="0" toLane="0" via=":7_0_0" dir="t" state="M"/>
    <connection from="8i" to="gneE34" fromLane="0" toLane="0" via=":2_0_0" tl="2" linkIndex="0" dir="r" state="o"/>
    <connection from="8i" to="7o" fromLane="0" toLane="0" via=":2_1_0" tl="2" linkIndex="1" dir="L" state="o"/>
    <connection from="8i" to="6o" fromLane="0" toLane="0" via=":2_2_0" tl="2" linkIndex="2" dir="l" state="o"/>
    <connection from="8i" to="8o" fromLane="0" toLane="0" via=":2_3_0" tl="2" linkIndex="3" dir="t" state="o"/>
    <connection from="8o" to="8i" fromLane="0" toLane="0" via=":8_0_0" dir="t" state="M"/>
    <connection from="gneE34" to="4o" fromLane="0" toLane="0" via=":0_4_0" tl="0" linkIndex="4" dir="r" state="o"/>
    <connection from="gneE34" to="1o" fromLane="0" toLane="0" via=":0_5_0" tl="0" linkIndex="5" dir="s" state="o"/>
    <connection from="gneE34" to="3o" fromLane="0" toLane="0" via=":0_6_0" tl="0" linkIndex="6" dir="l" state="o"/>

    <connection from=":0_0" to="1o" fromLane="0" toLane="0" dir="s" state="M"/>
    <connection from=":0_1" to="3o" fromLane="0" toLane="0" dir="s" state="M"/>
    <connection from=":0_2" to="2o" fromLane="0" toLane="0" via=":0_15_0" dir="s" state="m"/>
    <connection from=":0_15" to="2o" fromLane="0" toLane="0" dir="s" state="M"/>
    <connection from=":0_3" to="4o" fromLane="0" toLane="0" via=":0_16_0" dir="s" state="m"/>
    <connection from=":0_16" to="4o" fromLane="0" toLane="0" dir="s" state="M"/>
    <connection from=":0_4" to="4o" fromLane="0" toLane="0" dir="s" state="M"/>
    <connection from=":0_5" to="1o" fromLane="0" toLane="0" dir="s" state="M"/>
    <connection from=":0_6" to="3o" fromLane="0" toLane="0" via=":0_17_0" dir="s" state="m"/>
    <connection from=":0_17" to="3o" fromLane="0" toLane="0" dir="s" state="M"/>
    <connection from=":0_7" to="2o" fromLane="0" toLane="0" dir="s" state="M"/>
    <connection from=":0_8" to="4o" fromLane="0" toLane="0" dir="s" state="M"/>
    <connection from=":0_9" to="1o" fromLane="0" toLane="0" via=":0_18_0" dir="s" state="m"/>
    <connection from=":0_18" to="1o" fromLane="0" toLane="0" dir="s" state="M"/>
    <connection from=":0_10" to="3o" fromLane="0" toLane="0" via=":0_19_0" dir="s" state="m"/>
    <connection from=":0_19" to="3o" fromLane="0" toLane="0" dir="s" state="M"/>
    <connection from=":0_11" to="3o" fromLane="0" toLane="0" dir="s" state="M"/>
    <connection from=":0_12" to="2o" fromLane="0" toLane="0" dir="s" state="M"/>
    <connection from=":0_13" to="4o" fromLane="0" toLane="0" via=":0_20_0" dir="s" state="m"/>
    <connection from=":0_20" to="4o" fromLane="0" toLane="0" dir="s" state="M"/>
    <connection from=":0_14" to="1o" fromLane="0" toLane="0" via=":0_21_0" dir="s" state="m"/>
    <connection from=":0_21" to="1o" fromLane="0" toLane="0" dir="s" state="M"/>
    <connection from=":2_0" to="gneE34" fromLane="0" toLane="0" dir="s" state="M"/>
    <connection from=":2_1" to="7o" fromLane="0" toLane="0" dir="s" state="M"/>
    <connection from=":2_2" to="6o" fromLane="0" toLane="0" via=":2_15_0" dir="s" state="m"/>
    <connection from=":2_15" to="6o" fromLane="0" toLane="0" dir="s" state="M"/>
    <connection from=":2_3" to="8o" fromLane="0" toLane="0" via=":2_16_0" dir="s" state="m"/>
    <connection from=":2_16" to="8o" fromLane="0" toLane="0" dir="s" state="M"/>
    <connection from=":2_4" to="8o" fromLane="0" toLane="0" dir="s" state="M"/>
    <connection from=":2_5" to="gneE34" fromLane="0" toLane="0" dir="s" state="M"/>
    <connection from=":2_6" to="7o" fromLane="0" toLane="0" via=":2_17_0" dir="s" state="m"/>
    <connection from=":2_17" to="7o" fromLane="0" toLane="0" dir="s" state="M"/>
    <connection from=":2_7" to="6o" fromLane="0" toLane="0" via=":2_18_0" dir="s" state="m"/>
    <connection from=":2_18" to="6o" fromLane="0" toLane="0" dir="s" state="M"/>
    <connection from=":2_8" to="6o" fromLane="0" toLane="0" dir="s" state="M"/>
    <connection from=":2_9" to="8o" fromLane="0" toLane="0" dir="s" state="M"/>
    <connection from=":2_10" to="gneE34" fromLane="0" toLane="0" via=":2_19_0" dir="s" state="m"/>
    <connection from=":2_19" to="gneE34" fromLane="0" toLane="0" dir="s" state="M"/>
    <connection from=":2_11" to="7o" fromLane="0" toLane="0" via=":2_20_0" dir="s" state="m"/>
    <connection from=":2_20" to="7o" fromLane="0" toLane="0" dir="s" state="M"/>
    <connection from=":2_12" to="7o" fromLane="0" toLane="0" dir="s" state="M"/>
    <connection from=":2_13" to="6o" fromLane="0" toLane="0" dir="s" state="M"/>
    <connection from=":2_14" to="8o" fromLane="0" toLane="0" via=":2_21_0" dir="s" state="m"/>
    <connection from=":2_21" to="8o" fromLane="0" toLane="0" dir="s" state="M"/>
    <connection from=":6_0" to="6i" fromLane="0" toLane="0" dir="s" state="M"/>
    <connection from=":7_0" to="7i" fromLane="0" toLane="0" dir="s" state="M"/>
    <connection from=":8_0" to="8i" fromLane="0" toLane="0" dir="s" state="M"/>
    <connection from=":gneJ0_0" to="2o.7" fromLane="0" toLane="0" dir="s" state="M"/>
    <connection from=":gneJ0_0" to="2o.7" fromLane="1" toLane="1" dir="s" state="M"/>

</net>
