<?xml version="1.0" encoding="UTF-8"?>
<routes xmlns:xsi="http://www.w3.org/2001/XMLSchema-instance" xsi:noNamespaceSchemaLocation="http://sumo.dlr.de/xsd/routes_file.xsd">
    <vType id="CarA" length="5.0" color="0,1,0" accel="2.6" decel="4.5" tau="1.0" sigma="0.0" impatience="0.0" minGap="1" maxSpeed="70.0"/>

    <route id="67" edges="1to2 out" />

  
    <vehicle depart="0" id="veh0" route="67" type="CarA" departSpeed="max"/> 
<vehicle depart="1.2" id="veh1.2" route="67" type="CarA" departSpeed="max"/> 
<vehicle depart="2.4" id="veh2.4" route="67" type="CarA" departSpeed="max"/> 
<vehicle depart="3.6" id="veh3.6" route="67" type="CarA" departSpeed="max"/> 
<vehicle depart="4.8" id="veh4.8" route="67" type="CarA" departSpeed="max"/> 
<vehicle depart="6" id="veh6" route="67" type="CarA" departSpeed="max"/> 
<vehicle depart="7.2" id="veh7.2" route="67" type="CarA" departSpeed="max"/> 
<vehicle depart="8.4" id="veh8.4" route="67" type="CarA" departSpeed="max"/> 
<vehicle depart="9.6" id="veh9.6" route="67" type="CarA" departSpeed="max"/> 
<vehicle depart="10.8" id="veh10.8" route="67" type="CarA" departSpeed="max"/> 
<vehicle depart="12" id="veh12" route="67" type="CarA" departSpeed="max"/> 
<vehicle depart="13.2" id="veh13.2" route="67" type="CarA" departSpeed="max"/> 
<vehicle depart="14.4" id="veh14.4" route="67" type="CarA" departSpeed="max"/> 
<vehicle depart="15.6" id="veh15.6" route="67" type="CarA" departSpeed="max"/> 
<vehicle depart="16.8" id="veh16.8" route="67" type="CarA" departSpeed="max"/> 
<vehicle depart="18" id="veh18" route="67" type="CarA" departSpeed="max"/> 
<vehicle depart="19.2" id="veh19.2" route="67" type="CarA" departSpeed="max"/> 
<vehicle depart="20.4" id="veh20.4" route="67" type="CarA" departSpeed="max"/> 
<vehicle depart="21.6" id="veh21.6" route="67" type="CarA" departSpeed="max"/> 
<vehicle depart="22.8" id="veh22.8" route="67" type="CarA" departSpeed="max"/> 
<vehicle depart="24" id="veh24" route="67" type="CarA" departSpeed="max"/> 
<vehicle depart="25.2" id="veh25.2" route="67" type="CarA" departSpeed="max"/> 
<vehicle depart="26.4" id="veh26.4" route="67" type="CarA" departSpeed="max"/> 
<vehicle depart="27.6" id="veh27.6" route="67" type="CarA" departSpeed="max"/> 
<vehicle depart="28.8" id="veh28.8" route="67" type="CarA" departSpeed="max"/> 
<vehicle depart="30" id="veh30" route="67" type="CarA" departSpeed="max"/> 
<vehicle depart="31.2" id="veh31.2" route="67" type="CarA" departSpeed="max"/> 
<vehicle depart="32.4" id="veh32.4" route="67" type="CarA" departSpeed="max"/> 
<vehicle depart="33.6" id="veh33.6" route="67" type="CarA" departSpeed="max"/> 
<vehicle depart="34.8" id="veh34.8" route="67" type="CarA" departSpeed="max"/> 
<vehicle depart="36" id="veh36" route="67" type="CarA" departSpeed="max"/> 
<vehicle depart="37.2" id="veh37.2" route="67" type="CarA" departSpeed="max"/> 
<vehicle depart="38.4" id="veh38.4" route="67" type="CarA" departSpeed="max"/> 
<vehicle depart="39.6" id="veh39.6" route="67" type="CarA" departSpeed="max"/> 
<vehicle depart="40.8" id="veh40.8" route="67" type="CarA" departSpeed="max"/> 
<vehicle depart="42" id="veh42" route="67" type="CarA" departSpeed="max"/> 
<vehicle depart="43.2" id="veh43.2" route="67" type="CarA" departSpeed="max"/> 
<vehicle depart="44.4" id="veh44.4" route="67" type="CarA" departSpeed="max"/> 
<vehicle depart="45.6" id="veh45.6" route="67" type="CarA" departSpeed="max"/> 
<vehicle depart="46.8" id="veh46.8" route="67" type="CarA" departSpeed="max"/> 
<vehicle depart="48" id="veh48" route="67" type="CarA" departSpeed="max"/> 
<vehicle depart="49.2" id="veh49.2" route="67" type="CarA" departSpeed="max"/> 
<vehicle depart="50.4" id="veh50.4" route="67" type="CarA" departSpeed="max"/> 
<vehicle depart="51.6" id="veh51.6" route="67" type="CarA" departSpeed="max"/> 
<vehicle depart="52.8" id="veh52.8" route="67" type="CarA" departSpeed="max"/> 
<vehicle depart="54" id="veh54" route="67" type="CarA" departSpeed="max"/> 
<vehicle depart="55.2" id="veh55.2" route="67" type="CarA" departSpeed="max"/> 
<vehicle depart="56.4" id="veh56.4" route="67" type="CarA" departSpeed="max"/> 
<vehicle depart="57.6" id="veh57.6" route="67" type="CarA" departSpeed="max"/> 
<vehicle depart="58.8" id="veh58.8" route="67" type="CarA" departSpeed="max"/> 
<vehicle depart="60" id="veh60" route="67" type="CarA" departSpeed="max"/> 
<vehicle depart="61.2" id="veh61.2" route="67" type="CarA" departSpeed="max"/> 
<vehicle depart="62.4" id="veh62.4" route="67" type="CarA" departSpeed="max"/> 
<vehicle depart="63.6" id="veh63.6" route="67" type="CarA" departSpeed="max"/> 
<vehicle depart="64.8" id="veh64.8" route="67" type="CarA" departSpeed="max"/> 
<vehicle depart="66" id="veh66" route="67" type="CarA" departSpeed="max"/> 
<vehicle depart="67.2" id="veh67.2" route="67" type="CarA" departSpeed="max"/> 
<vehicle depart="68.4" id="veh68.4" route="67" type="CarA" departSpeed="max"/> 
<vehicle depart="69.6" id="veh69.6" route="67" type="CarA" departSpeed="max"/> 
<vehicle depart="70.8" id="veh70.8" route="67" type="CarA" departSpeed="max"/> 
<vehicle depart="72" id="veh72" route="67" type="CarA" departSpeed="max"/> 
<vehicle depart="73.2" id="veh73.2" route="67" type="CarA" departSpeed="max"/> 
<vehicle depart="74.4" id="veh74.4" route="67" type="CarA" departSpeed="max"/> 
<vehicle depart="75.6" id="veh75.6" route="67" type="CarA" departSpeed="max"/> 
<vehicle depart="76.8" id="veh76.8" route="67" type="CarA" departSpeed="max"/> 
<vehicle depart="78" id="veh78" route="67" type="CarA" departSpeed="max"/> 
<vehicle depart="79.2" id="veh79.2" route="67" type="CarA" departSpeed="max"/> 
<vehicle depart="80.4" id="veh80.4" route="67" type="CarA" departSpeed="max"/> 
<vehicle depart="81.6" id="veh81.6" route="67" type="CarA" departSpeed="max"/> 
<vehicle depart="82.8" id="veh82.8" route="67" type="CarA" departSpeed="max"/> 
<vehicle depart="84" id="veh84" route="67" type="CarA" departSpeed="max"/> 
<vehicle depart="85.2" id="veh85.2" route="67" type="CarA" departSpeed="max"/> 
<vehicle depart="86.4" id="veh86.4" route="67" type="CarA" departSpeed="max"/> 
<vehicle depart="87.6" id="veh87.6" route="67" type="CarA" departSpeed="max"/> 
<vehicle depart="88.8" id="veh88.8" route="67" type="CarA" departSpeed="max"/> 
<vehicle depart="90" id="veh90" route="67" type="CarA" departSpeed="max"/> 
<vehicle depart="91.2" id="veh91.2" route="67" type="CarA" departSpeed="max"/> 
<vehicle depart="92.4" id="veh92.4" route="67" type="CarA" departSpeed="max"/> 
<vehicle depart="93.6" id="veh93.6" route="67" type="CarA" departSpeed="max"/> 
<vehicle depart="94.8" id="veh94.8" route="67" type="CarA" departSpeed="max"/> 
<vehicle depart="96" id="veh96" route="67" type="CarA" departSpeed="max"/> 
<vehicle depart="97.2" id="veh97.2" route="67" type="CarA" departSpeed="max"/> 
<vehicle depart="98.4" id="veh98.4" route="67" type="CarA" departSpeed="max"/> 
<vehicle depart="99.6" id="veh99.6" route="67" type="CarA" departSpeed="max"/> 
<vehicle depart="100.8" id="veh100.8" route="67" type="CarA" departSpeed="max"/> 
<vehicle depart="102" id="veh102" route="67" type="CarA" departSpeed="max"/> 
<vehicle depart="103.2" id="veh103.2" route="67" type="CarA" departSpeed="max"/> 
<vehicle depart="104.4" id="veh104.4" route="67" type="CarA" departSpeed="max"/> 
<vehicle depart="105.6" id="veh105.6" route="67" type="CarA" departSpeed="max"/> 
<vehicle depart="106.8" id="veh106.8" route="67" type="CarA" departSpeed="max"/> 
<vehicle depart="108" id="veh108" route="67" type="CarA" departSpeed="max"/> 
<vehicle depart="109.2" id="veh109.2" route="67" type="CarA" departSpeed="max"/> 
<vehicle depart="110.4" id="veh110.4" route="67" type="CarA" departSpeed="max"/> 
<vehicle depart="111.6" id="veh111.6" route="67" type="CarA" departSpeed="max"/> 
<vehicle depart="112.8" id="veh112.8" route="67" type="CarA" departSpeed="max"/> 
<vehicle depart="114" id="veh114" route="67" type="CarA" departSpeed="max"/> 
<vehicle depart="115.2" id="veh115.2" route="67" type="CarA" departSpeed="max"/> 
<vehicle depart="116.4" id="veh116.4" route="67" type="CarA" departSpeed="max"/> 
<vehicle depart="117.6" id="veh117.6" route="67" type="CarA" departSpeed="max"/> 
<vehicle depart="118.8" id="veh118.8" route="67" type="CarA" departSpeed="max"/> 
<vehicle depart="120" id="veh120" route="67" type="CarA" departSpeed="max"/> 
<vehicle depart="121.2" id="veh121.2" route="67" type="CarA" departSpeed="max"/> 
<vehicle depart="122.4" id="veh122.4" route="67" type="CarA" departSpeed="max"/> 
<vehicle depart="123.6" id="veh123.6" route="67" type="CarA" departSpeed="max"/> 
<vehicle depart="124.8" id="veh124.8" route="67" type="CarA" departSpeed="max"/> 
<vehicle depart="126" id="veh126" route="67" type="CarA" departSpeed="max"/> 
<vehicle depart="127.2" id="veh127.2" route="67" type="CarA" departSpeed="max"/> 
<vehicle depart="128.4" id="veh128.4" route="67" type="CarA" departSpeed="max"/> 
<vehicle depart="129.6" id="veh129.6" route="67" type="CarA" departSpeed="max"/> 
<vehicle depart="130.8" id="veh130.8" route="67" type="CarA" departSpeed="max"/> 
<vehicle depart="132" id="veh132" route="67" type="CarA" departSpeed="max"/> 
<vehicle depart="133.2" id="veh133.2" route="67" type="CarA" departSpeed="max"/> 
<vehicle depart="134.4" id="veh134.4" route="67" type="CarA" departSpeed="max"/> 
<vehicle depart="135.6" id="veh135.6" route="67" type="CarA" departSpeed="max"/> 
<vehicle depart="136.8" id="veh136.8" route="67" type="CarA" departSpeed="max"/> 
<vehicle depart="138" id="veh138" route="67" type="CarA" departSpeed="max"/> 
<vehicle depart="139.2" id="veh139.2" route="67" type="CarA" departSpeed="max"/> 
<vehicle depart="140.4" id="veh140.4" route="67" type="CarA" departSpeed="max"/> 
<vehicle depart="141.6" id="veh141.6" route="67" type="CarA" departSpeed="max"/> 
<vehicle depart="142.8" id="veh142.8" route="67" type="CarA" departSpeed="max"/> 
<vehicle depart="144" id="veh144" route="67" type="CarA" departSpeed="max"/> 
<vehicle depart="145.2" id="veh145.2" route="67" type="CarA" departSpeed="max"/> 
<vehicle depart="146.4" id="veh146.4" route="67" type="CarA" departSpeed="max"/> 
<vehicle depart="147.6" id="veh147.6" route="67" type="CarA" departSpeed="max"/> 
<vehicle depart="148.8" id="veh148.8" route="67" type="CarA" departSpeed="max"/> 
<vehicle depart="150" id="veh150" route="67" type="CarA" departSpeed="max"/> 
<vehicle depart="151.2" id="veh151.2" route="67" type="CarA" departSpeed="max"/> 
<vehicle depart="152.4" id="veh152.4" route="67" type="CarA" departSpeed="max"/> 
<vehicle depart="153.6" id="veh153.6" route="67" type="CarA" departSpeed="max"/> 
<vehicle depart="154.8" id="veh154.8" route="67" type="CarA" departSpeed="max"/> 
<vehicle depart="156" id="veh156" route="67" type="CarA" departSpeed="max"/> 
<vehicle depart="157.2" id="veh157.2" route="67" type="CarA" departSpeed="max"/> 
<vehicle depart="158.4" id="veh158.4" route="67" type="CarA" departSpeed="max"/> 
<vehicle depart="159.6" id="veh159.6" route="67" type="CarA" departSpeed="max"/> 
<vehicle depart="160.8" id="veh160.8" route="67" type="CarA" departSpeed="max"/> 
<vehicle depart="162" id="veh162" route="67" type="CarA" departSpeed="max"/> 
<vehicle depart="163.2" id="veh163.2" route="67" type="CarA" departSpeed="max"/> 
<vehicle depart="164.4" id="veh164.4" route="67" type="CarA" departSpeed="max"/> 
<vehicle depart="165.6" id="veh165.6" route="67" type="CarA" departSpeed="max"/> 
<vehicle depart="166.8" id="veh166.8" route="67" type="CarA" departSpeed="max"/> 
<vehicle depart="168" id="veh168" route="67" type="CarA" departSpeed="max"/> 
<vehicle depart="169.2" id="veh169.2" route="67" type="CarA" departSpeed="max"/> 
<vehicle depart="170.4" id="veh170.4" route="67" type="CarA" departSpeed="max"/> 
<vehicle depart="171.6" id="veh171.6" route="67" type="CarA" departSpeed="max"/> 
<vehicle depart="172.8" id="veh172.8" route="67" type="CarA" departSpeed="max"/> 
<vehicle depart="174" id="veh174" route="67" type="CarA" departSpeed="max"/> 
<vehicle depart="175.2" id="veh175.2" route="67" type="CarA" departSpeed="max"/> 
<vehicle depart="176.4" id="veh176.4" route="67" type="CarA" departSpeed="max"/> 
<vehicle depart="177.6" id="veh177.6" route="67" type="CarA" departSpeed="max"/> 
<vehicle depart="178.8" id="veh178.8" route="67" type="CarA" departSpeed="max"/> 
<vehicle depart="180" id="veh180" route="67" type="CarA" departSpeed="max"/> 
<vehicle depart="181.2" id="veh181.2" route="67" type="CarA" departSpeed="max"/> 
<vehicle depart="182.4" id="veh182.4" route="67" type="CarA" departSpeed="max"/> 
<vehicle depart="183.6" id="veh183.6" route="67" type="CarA" departSpeed="max"/> 
<vehicle depart="184.8" id="veh184.8" route="67" type="CarA" departSpeed="max"/> 
<vehicle depart="186" id="veh186" route="67" type="CarA" departSpeed="max"/> 
<vehicle depart="187.2" id="veh187.2" route="67" type="CarA" departSpeed="max"/> 
<vehicle depart="188.4" id="veh188.4" route="67" type="CarA" departSpeed="max"/> 
<vehicle depart="189.6" id="veh189.6" route="67" type="CarA" departSpeed="max"/> 
<vehicle depart="190.8" id="veh190.8" route="67" type="CarA" departSpeed="max"/> 
<vehicle depart="192" id="veh192" route="67" type="CarA" departSpeed="max"/> 
<vehicle depart="193.2" id="veh193.2" route="67" type="CarA" departSpeed="max"/> 
<vehicle depart="194.4" id="veh194.4" route="67" type="CarA" departSpeed="max"/> 
<vehicle depart="195.6" id="veh195.6" route="67" type="CarA" departSpeed="max"/> 
<vehicle depart="196.8" id="veh196.8" route="67" type="CarA" departSpeed="max"/> 
<vehicle depart="198" id="veh198" route="67" type="CarA" departSpeed="max"/> 
<vehicle depart="199.2" id="veh199.2" route="67" type="CarA" departSpeed="max"/> 
<vehicle depart="200.4" id="veh200.4" route="67" type="CarA" departSpeed="max"/> 
<vehicle depart="201.6" id="veh201.6" route="67" type="CarA" departSpeed="max"/> 
<vehicle depart="202.8" id="veh202.8" route="67" type="CarA" departSpeed="max"/> 
<vehicle depart="204" id="veh204" route="67" type="CarA" departSpeed="max"/> 
<vehicle depart="205.2" id="veh205.2" route="67" type="CarA" departSpeed="max"/> 
<vehicle depart="206.4" id="veh206.4" route="67" type="CarA" departSpeed="max"/> 
<vehicle depart="207.6" id="veh207.6" route="67" type="CarA" departSpeed="max"/> 
<vehicle depart="208.8" id="veh208.8" route="67" type="CarA" departSpeed="max"/> 
<vehicle depart="210" id="veh210" route="67" type="CarA" departSpeed="max"/> 
<vehicle depart="211.2" id="veh211.2" route="67" type="CarA" departSpeed="max"/> 
<vehicle depart="212.4" id="veh212.4" route="67" type="CarA" departSpeed="max"/> 
<vehicle depart="213.6" id="veh213.6" route="67" type="CarA" departSpeed="max"/> 
<vehicle depart="214.8" id="veh214.8" route="67" type="CarA" departSpeed="max"/> 
<vehicle depart="216" id="veh216" route="67" type="CarA" departSpeed="max"/> 
<vehicle depart="217.2" id="veh217.2" route="67" type="CarA" departSpeed="max"/> 
<vehicle depart="218.4" id="veh218.4" route="67" type="CarA" departSpeed="max"/> 
<vehicle depart="219.6" id="veh219.6" route="67" type="CarA" departSpeed="max"/> 
<vehicle depart="220.8" id="veh220.8" route="67" type="CarA" departSpeed="max"/> 
<vehicle depart="222" id="veh222" route="67" type="CarA" departSpeed="max"/> 
<vehicle depart="223.2" id="veh223.2" route="67" type="CarA" departSpeed="max"/> 
<vehicle depart="224.4" id="veh224.4" route="67" type="CarA" departSpeed="max"/> 
<vehicle depart="225.6" id="veh225.6" route="67" type="CarA" departSpeed="max"/> 
<vehicle depart="226.8" id="veh226.8" route="67" type="CarA" departSpeed="max"/> 
<vehicle depart="228" id="veh228" route="67" type="CarA" departSpeed="max"/> 
<vehicle depart="229.2" id="veh229.2" route="67" type="CarA" departSpeed="max"/> 
<vehicle depart="230.4" id="veh230.4" route="67" type="CarA" departSpeed="max"/> 
<vehicle depart="231.6" id="veh231.6" route="67" type="CarA" departSpeed="max"/> 
<vehicle depart="232.8" id="veh232.8" route="67" type="CarA" departSpeed="max"/> 
<vehicle depart="234" id="veh234" route="67" type="CarA" departSpeed="max"/> 
<vehicle depart="235.2" id="veh235.2" route="67" type="CarA" departSpeed="max"/> 
<vehicle depart="236.4" id="veh236.4" route="67" type="CarA" departSpeed="max"/> 
<vehicle depart="237.6" id="veh237.6" route="67" type="CarA" departSpeed="max"/> 
<vehicle depart="238.8" id="veh238.8" route="67" type="CarA" departSpeed="max"/> 
<vehicle depart="240" id="veh240" route="67" type="CarA" departSpeed="max"/> 
<vehicle depart="241.2" id="veh241.2" route="67" type="CarA" departSpeed="max"/> 
<vehicle depart="242.4" id="veh242.4" route="67" type="CarA" departSpeed="max"/> 
<vehicle depart="243.6" id="veh243.6" route="67" type="CarA" departSpeed="max"/> 
<vehicle depart="244.8" id="veh244.8" route="67" type="CarA" departSpeed="max"/> 
<vehicle depart="246" id="veh246" route="67" type="CarA" departSpeed="max"/> 
<vehicle depart="247.2" id="veh247.2" route="67" type="CarA" departSpeed="max"/> 
<vehicle depart="248.4" id="veh248.4" route="67" type="CarA" departSpeed="max"/> 
<vehicle depart="249.6" id="veh249.6" route="67" type="CarA" departSpeed="max"/> 
<vehicle depart="250.8" id="veh250.8" route="67" type="CarA" departSpeed="max"/> 
<vehicle depart="252" id="veh252" route="67" type="CarA" departSpeed="max"/> 
<vehicle depart="253.2" id="veh253.2" route="67" type="CarA" departSpeed="max"/> 
<vehicle depart="254.4" id="veh254.4" route="67" type="CarA" departSpeed="max"/> 
<vehicle depart="255.6" id="veh255.6" route="67" type="CarA" departSpeed="max"/> 
<vehicle depart="256.8" id="veh256.8" route="67" type="CarA" departSpeed="max"/> 
<vehicle depart="258" id="veh258" route="67" type="CarA" departSpeed="max"/> 
<vehicle depart="259.2" id="veh259.2" route="67" type="CarA" departSpeed="max"/> 
<vehicle depart="260.4" id="veh260.4" route="67" type="CarA" departSpeed="max"/> 
<vehicle depart="261.6" id="veh261.6" route="67" type="CarA" departSpeed="max"/> 
<vehicle depart="262.8" id="veh262.8" route="67" type="CarA" departSpeed="max"/> 
<vehicle depart="264" id="veh264" route="67" type="CarA" departSpeed="max"/> 
<vehicle depart="265.2" id="veh265.2" route="67" type="CarA" departSpeed="max"/> 
<vehicle depart="266.4" id="veh266.4" route="67" type="CarA" departSpeed="max"/> 
<vehicle depart="267.6" id="veh267.6" route="67" type="CarA" departSpeed="max"/> 
<vehicle depart="268.8" id="veh268.8" route="67" type="CarA" departSpeed="max"/> 
<vehicle depart="270" id="veh270" route="67" type="CarA" departSpeed="max"/> 
<vehicle depart="271.2" id="veh271.2" route="67" type="CarA" departSpeed="max"/> 
<vehicle depart="272.4" id="veh272.4" route="67" type="CarA" departSpeed="max"/> 
<vehicle depart="273.6" id="veh273.6" route="67" type="CarA" departSpeed="max"/> 
<vehicle depart="274.8" id="veh274.8" route="67" type="CarA" departSpeed="max"/> 
<vehicle depart="276" id="veh276" route="67" type="CarA" departSpeed="max"/> 
<vehicle depart="277.2" id="veh277.2" route="67" type="CarA" departSpeed="max"/> 
<vehicle depart="278.4" id="veh278.4" route="67" type="CarA" departSpeed="max"/> 
<vehicle depart="279.6" id="veh279.6" route="67" type="CarA" departSpeed="max"/> 
<vehicle depart="280.8" id="veh280.8" route="67" type="CarA" departSpeed="max"/> 
<vehicle depart="282" id="veh282" route="67" type="CarA" departSpeed="max"/> 
<vehicle depart="283.2" id="veh283.2" route="67" type="CarA" departSpeed="max"/> 
<vehicle depart="284.4" id="veh284.4" route="67" type="CarA" departSpeed="max"/> 
<vehicle depart="285.6" id="veh285.6" route="67" type="CarA" departSpeed="max"/> 
<vehicle depart="286.8" id="veh286.8" route="67" type="CarA" departSpeed="max"/> 
<vehicle depart="288" id="veh288" route="67" type="CarA" departSpeed="max"/> 
<vehicle depart="289.2" id="veh289.2" route="67" type="CarA" departSpeed="max"/> 
<vehicle depart="290.4" id="veh290.4" route="67" type="CarA" departSpeed="max"/> 
<vehicle depart="291.6" id="veh291.6" route="67" type="CarA" departSpeed="max"/> 
<vehicle depart="292.8" id="veh292.8" route="67" type="CarA" departSpeed="max"/> 
<vehicle depart="294" id="veh294" route="67" type="CarA" departSpeed="max"/> 
<vehicle depart="295.2" id="veh295.2" route="67" type="CarA" departSpeed="max"/> 
<vehicle depart="296.4" id="veh296.4" route="67" type="CarA" departSpeed="max"/> 
<vehicle depart="297.6" id="veh297.6" route="67" type="CarA" departSpeed="max"/> 
<vehicle depart="298.8" id="veh298.8" route="67" type="CarA" departSpeed="max"/> 
<vehicle depart="300" id="veh300" route="67" type="CarA" departSpeed="max"/> 
<vehicle depart="301.2" id="veh301.2" route="67" type="CarA" departSpeed="max"/> 
<vehicle depart="302.4" id="veh302.4" route="67" type="CarA" departSpeed="max"/> 
<vehicle depart="303.6" id="veh303.6" route="67" type="CarA" departSpeed="max"/> 
<vehicle depart="304.8" id="veh304.8" route="67" type="CarA" departSpeed="max"/> 
<vehicle depart="306" id="veh306" route="67" type="CarA" departSpeed="max"/> 
<vehicle depart="307.2" id="veh307.2" route="67" type="CarA" departSpeed="max"/> 
<vehicle depart="308.4" id="veh308.4" route="67" type="CarA" departSpeed="max"/> 
<vehicle depart="309.6" id="veh309.6" route="67" type="CarA" departSpeed="max"/> 
<vehicle depart="310.8" id="veh310.8" route="67" type="CarA" departSpeed="max"/> 
<vehicle depart="312" id="veh312" route="67" type="CarA" departSpeed="max"/> 
<vehicle depart="313.2" id="veh313.2" route="67" type="CarA" departSpeed="max"/> 
<vehicle depart="314.4" id="veh314.4" route="67" type="CarA" departSpeed="max"/> 
<vehicle depart="315.6" id="veh315.6" route="67" type="CarA" departSpeed="max"/> 
<vehicle depart="316.8" id="veh316.8" route="67" type="CarA" departSpeed="max"/> 
<vehicle depart="318" id="veh318" route="67" type="CarA" departSpeed="max"/> 
<vehicle depart="319.2" id="veh319.2" route="67" type="CarA" departSpeed="max"/> 
<vehicle depart="320.4" id="veh320.4" route="67" type="CarA" departSpeed="max"/> 
<vehicle depart="321.6" id="veh321.6" route="67" type="CarA" departSpeed="max"/> 
<vehicle depart="322.8" id="veh322.8" route="67" type="CarA" departSpeed="max"/> 
<vehicle depart="324" id="veh324" route="67" type="CarA" departSpeed="max"/> 
<vehicle depart="325.2" id="veh325.2" route="67" type="CarA" departSpeed="max"/> 
<vehicle depart="326.4" id="veh326.4" route="67" type="CarA" departSpeed="max"/> 
<vehicle depart="327.6" id="veh327.6" route="67" type="CarA" departSpeed="max"/> 
<vehicle depart="328.8" id="veh328.8" route="67" type="CarA" departSpeed="max"/> 
<vehicle depart="330" id="veh330" route="67" type="CarA" departSpeed="max"/> 
<vehicle depart="331.2" id="veh331.2" route="67" type="CarA" departSpeed="max"/> 
<vehicle depart="332.4" id="veh332.4" route="67" type="CarA" departSpeed="max"/> 
<vehicle depart="333.6" id="veh333.6" route="67" type="CarA" departSpeed="max"/> 
<vehicle depart="334.8" id="veh334.8" route="67" type="CarA" departSpeed="max"/> 
<vehicle depart="336" id="veh336" route="67" type="CarA" departSpeed="max"/> 
<vehicle depart="337.2" id="veh337.2" route="67" type="CarA" departSpeed="max"/> 
<vehicle depart="338.4" id="veh338.4" route="67" type="CarA" departSpeed="max"/> 
<vehicle depart="339.6" id="veh339.6" route="67" type="CarA" departSpeed="max"/> 
<vehicle depart="340.8" id="veh340.8" route="67" type="CarA" departSpeed="max"/> 
<vehicle depart="342" id="veh342" route="67" type="CarA" departSpeed="max"/> 
<vehicle depart="343.2" id="veh343.2" route="67" type="CarA" departSpeed="max"/> 
<vehicle depart="344.4" id="veh344.4" route="67" type="CarA" departSpeed="max"/> 
<vehicle depart="345.6" id="veh345.6" route="67" type="CarA" departSpeed="max"/> 
<vehicle depart="346.8" id="veh346.8" route="67" type="CarA" departSpeed="max"/> 
<vehicle depart="348" id="veh348" route="67" type="CarA" departSpeed="max"/> 
<vehicle depart="349.2" id="veh349.2" route="67" type="CarA" departSpeed="max"/> 
<vehicle depart="350.4" id="veh350.4" route="67" type="CarA" departSpeed="max"/> 
<vehicle depart="351.6" id="veh351.6" route="67" type="CarA" departSpeed="max"/> 
<vehicle depart="352.8" id="veh352.8" route="67" type="CarA" departSpeed="max"/> 
<vehicle depart="354" id="veh354" route="67" type="CarA" departSpeed="max"/> 
<vehicle depart="355.2" id="veh355.2" route="67" type="CarA" departSpeed="max"/> 
<vehicle depart="356.4" id="veh356.4" route="67" type="CarA" departSpeed="max"/> 
<vehicle depart="357.6" id="veh357.6" route="67" type="CarA" departSpeed="max"/> 
<vehicle depart="358.8" id="veh358.8" route="67" type="CarA" departSpeed="max"/> 
<vehicle depart="360" id="veh360" route="67" type="CarA" departSpeed="max"/> 
<vehicle depart="361.2" id="veh361.2" route="67" type="CarA" departSpeed="max"/> 
<vehicle depart="362.4" id="veh362.4" route="67" type="CarA" departSpeed="max"/> 
<vehicle depart="363.6" id="veh363.6" route="67" type="CarA" departSpeed="max"/> 
<vehicle depart="364.8" id="veh364.8" route="67" type="CarA" departSpeed="max"/> 
<vehicle depart="366" id="veh366" route="67" type="CarA" departSpeed="max"/> 
<vehicle depart="367.2" id="veh367.2" route="67" type="CarA" departSpeed="max"/> 
<vehicle depart="368.4" id="veh368.4" route="67" type="CarA" departSpeed="max"/> 
<vehicle depart="369.6" id="veh369.6" route="67" type="CarA" departSpeed="max"/> 
<vehicle depart="370.8" id="veh370.8" route="67" type="CarA" departSpeed="max"/> 
<vehicle depart="372" id="veh372" route="67" type="CarA" departSpeed="max"/> 
<vehicle depart="373.2" id="veh373.2" route="67" type="CarA" departSpeed="max"/> 
<vehicle depart="374.4" id="veh374.4" route="67" type="CarA" departSpeed="max"/> 
<vehicle depart="375.6" id="veh375.6" route="67" type="CarA" departSpeed="max"/> 
<vehicle depart="376.8" id="veh376.8" route="67" type="CarA" departSpeed="max"/> 
<vehicle depart="378" id="veh378" route="67" type="CarA" departSpeed="max"/> 
<vehicle depart="379.2" id="veh379.2" route="67" type="CarA" departSpeed="max"/> 
<vehicle depart="380.4" id="veh380.4" route="67" type="CarA" departSpeed="max"/> 
<vehicle depart="381.6" id="veh381.6" route="67" type="CarA" departSpeed="max"/> 
<vehicle depart="382.8" id="veh382.8" route="67" type="CarA" departSpeed="max"/> 
<vehicle depart="384" id="veh384" route="67" type="CarA" departSpeed="max"/> 
<vehicle depart="385.2" id="veh385.2" route="67" type="CarA" departSpeed="max"/> 
<vehicle depart="386.4" id="veh386.4" route="67" type="CarA" departSpeed="max"/> 
<vehicle depart="387.6" id="veh387.6" route="67" type="CarA" departSpeed="max"/> 
<vehicle depart="388.8" id="veh388.8" route="67" type="CarA" departSpeed="max"/> 
<vehicle depart="390" id="veh390" route="67" type="CarA" departSpeed="max"/> 
<vehicle depart="391.2" id="veh391.2" route="67" type="CarA" departSpeed="max"/> 
<vehicle depart="392.4" id="veh392.4" route="67" type="CarA" departSpeed="max"/> 
<vehicle depart="393.6" id="veh393.6" route="67" type="CarA" departSpeed="max"/> 
<vehicle depart="394.8" id="veh394.8" route="67" type="CarA" departSpeed="max"/> 
<vehicle depart="396" id="veh396" route="67" type="CarA" departSpeed="max"/> 
<vehicle depart="397.2" id="veh397.2" route="67" type="CarA" departSpeed="max"/> 
<vehicle depart="398.4" id="veh398.4" route="67" type="CarA" departSpeed="max"/> 
<vehicle depart="399.6" id="veh399.6" route="67" type="CarA" departSpeed="max"/> 
<vehicle depart="400.8" id="veh400.8" route="67" type="CarA" departSpeed="max"/> 
<vehicle depart="402" id="veh402" route="67" type="CarA" departSpeed="max"/> 
<vehicle depart="403.2" id="veh403.2" route="67" type="CarA" departSpeed="max"/> 
<vehicle depart="404.4" id="veh404.4" route="67" type="CarA" departSpeed="max"/> 
<vehicle depart="405.6" id="veh405.6" route="67" type="CarA" departSpeed="max"/> 
<vehicle depart="406.8" id="veh406.8" route="67" type="CarA" departSpeed="max"/> 
<vehicle depart="408" id="veh408" route="67" type="CarA" departSpeed="max"/> 
<vehicle depart="409.2" id="veh409.2" route="67" type="CarA" departSpeed="max"/> 
<vehicle depart="410.4" id="veh410.4" route="67" type="CarA" departSpeed="max"/> 
<vehicle depart="411.6" id="veh411.6" route="67" type="CarA" departSpeed="max"/> 
<vehicle depart="412.8" id="veh412.8" route="67" type="CarA" departSpeed="max"/> 
<vehicle depart="414" id="veh414" route="67" type="CarA" departSpeed="max"/> 
<vehicle depart="415.2" id="veh415.2" route="67" type="CarA" departSpeed="max"/> 
<vehicle depart="416.4" id="veh416.4" route="67" type="CarA" departSpeed="max"/> 
<vehicle depart="417.6" id="veh417.6" route="67" type="CarA" departSpeed="max"/> 
<vehicle depart="418.8" id="veh418.8" route="67" type="CarA" departSpeed="max"/> 
<vehicle depart="420" id="veh420" route="67" type="CarA" departSpeed="max"/> 
<vehicle depart="421.2" id="veh421.2" route="67" type="CarA" departSpeed="max"/> 
<vehicle depart="422.4" id="veh422.4" route="67" type="CarA" departSpeed="max"/> 
<vehicle depart="423.6" id="veh423.6" route="67" type="CarA" departSpeed="max"/> 
<vehicle depart="424.8" id="veh424.8" route="67" type="CarA" departSpeed="max"/> 
<vehicle depart="426" id="veh426" route="67" type="CarA" departSpeed="max"/> 
<vehicle depart="427.2" id="veh427.2" route="67" type="CarA" departSpeed="max"/> 
<vehicle depart="428.4" id="veh428.4" route="67" type="CarA" departSpeed="max"/> 
<vehicle depart="429.6" id="veh429.6" route="67" type="CarA" departSpeed="max"/> 
<vehicle depart="430.8" id="veh430.8" route="67" type="CarA" departSpeed="max"/> 
<vehicle depart="432" id="veh432" route="67" type="CarA" departSpeed="max"/> 
<vehicle depart="433.2" id="veh433.2" route="67" type="CarA" departSpeed="max"/> 