<?xml version="1.0" encoding="UTF-8"?>
<routes xmlns:xsi="http://www.w3.org/2001/XMLSchema-instance" xsi:noNamespaceSchemaLocation="http://sumo.dlr.de/xsd/routes_file.xsd">
  <vType id="CarA" length="5.0" color="0,1,0" accel="2.6" decel="4.5" tau="1.0" sigma="0.0" impatience="0.0" minGap="0.5" maxSpeed="70.0"/>

  <route id="67" edges="1to2 out" />

  <vehicle depart="0.1" id="veh1" route="67" type="CarA" departSpeed="max"/> 
  <vehicle depart="0.2" id="veh2" route="67" type="CarA" departSpeed="max"/> 
  <vehicle depart="0.3" id="veh3" route="67" type="CarA" departSpeed="max"/> 
  <vehicle depart="0.4" id="veh4" route="67" type="CarA" departSpeed="max"/> 
  <vehicle depart="0.5" id="veh5" route="67" type="CarA" departSpeed="max"/> 
  <vehicle depart="0.6" id="veh6" route="67" type="CarA" departSpeed="max"/> 
  <vehicle depart="0.7" id="veh7" route="67" type="CarA" departSpeed="max"/> 
  <vehicle depart="0.8" id="veh8" route="67" type="CarA" departSpeed="max"/> 
  <vehicle depart="0.9" id="veh9" route="67" type="CarA" departSpeed="max"/> 
  <vehicle depart="1" id="veh10" route="67" type="CarA" departSpeed="max"/> 
  <vehicle depart="1.1" id="veh11" route="67" type="CarA" departSpeed="max"/> 
  <vehicle depart="1.2" id="veh12" route="67" type="CarA" departSpeed="max"/> 
  <vehicle depart="1.3" id="veh13" route="67" type="CarA" departSpeed="max"/> 
  <vehicle depart="1.4" id="veh14" route="67" type="CarA" departSpeed="max"/> 
  <vehicle depart="1.5" id="veh15" route="67" type="CarA" departSpeed="max"/> 
  <vehicle depart="1.6" id="veh16" route="67" type="CarA" departSpeed="max"/> 
  <vehicle depart="1.7" id="veh17" route="67" type="CarA" departSpeed="max"/> 
  <vehicle depart="1.8" id="veh18" route="67" type="CarA" departSpeed="max"/> 
  <vehicle depart="1.9" id="veh19" route="67" type="CarA" departSpeed="max"/> 
  <vehicle depart="2" id="veh20" route="67" type="CarA" departSpeed="max"/> 
  <vehicle depart="2.1" id="veh21" route="67" type="CarA" departSpeed="max"/> 
  <vehicle depart="2.2" id="veh22" route="67" type="CarA" departSpeed="max"/> 
  <vehicle depart="2.3" id="veh23" route="67" type="CarA" departSpeed="max"/> 
  <vehicle depart="2.4" id="veh24" route="67" type="CarA" departSpeed="max"/> 
  <vehicle depart="2.5" id="veh25" route="67" type="CarA" departSpeed="max"/> 
  <vehicle depart="2.6" id="veh26" route="67" type="CarA" departSpeed="max"/> 
  <vehicle depart="2.7" id="veh27" route="67" type="CarA" departSpeed="max"/> 
  <vehicle depart="2.8" id="veh28" route="67" type="CarA" departSpeed="max"/> 
  <vehicle depart="2.9" id="veh29" route="67" type="CarA" departSpeed="max"/> 
  <vehicle depart="3" id="veh30" route="67" type="CarA" departSpeed="max"/> 
  <vehicle depart="3.1" id="veh31" route="67" type="CarA" departSpeed="max"/> 
  <vehicle depart="3.2" id="veh32" route="67" type="CarA" departSpeed="max"/> 
  <vehicle depart="3.3" id="veh33" route="67" type="CarA" departSpeed="max"/> 
  <vehicle depart="3.4" id="veh34" route="67" type="CarA" departSpeed="max"/> 
  <vehicle depart="3.5" id="veh35" route="67" type="CarA" departSpeed="max"/> 
  <vehicle depart="3.6" id="veh36" route="67" type="CarA" departSpeed="max"/> 
  <vehicle depart="3.7" id="veh37" route="67" type="CarA" departSpeed="max"/> 
  <vehicle depart="3.8" id="veh38" route="67" type="CarA" departSpeed="max"/> 
  <vehicle depart="3.9" id="veh39" route="67" type="CarA" departSpeed="max"/> 
  <vehicle depart="4" id="veh40" route="67" type="CarA" departSpeed="max"/> 
  <vehicle depart="4.1" id="veh41" route="67" type="CarA" departSpeed="max"/> 
  <vehicle depart="4.2" id="veh42" route="67" type="CarA" departSpeed="max"/> 
  <vehicle depart="4.3" id="veh43" route="67" type="CarA" departSpeed="max"/> 
  <vehicle depart="4.4" id="veh44" route="67" type="CarA" departSpeed="max"/> 
  <vehicle depart="4.5" id="veh45" route="67" type="CarA" departSpeed="max"/> 
  <vehicle depart="4.6" id="veh46" route="67" type="CarA" departSpeed="max"/> 
  <vehicle depart="4.7" id="veh47" route="67" type="CarA" departSpeed="max"/> 
  <vehicle depart="4.8" id="veh48" route="67" type="CarA" departSpeed="max"/> 
  <vehicle depart="4.9" id="veh49" route="67" type="CarA" departSpeed="max"/> 
  <vehicle depart="5" id="veh50" route="67" type="CarA" departSpeed="max"/> 
  <vehicle depart="5.1" id="veh51" route="67" type="CarA" departSpeed="max"/> 
  <vehicle depart="5.2" id="veh52" route="67" type="CarA" departSpeed="max"/> 
  <vehicle depart="5.3" id="veh53" route="67" type="CarA" departSpeed="max"/> 
  <vehicle depart="5.4" id="veh54" route="67" type="CarA" departSpeed="max"/> 
  <vehicle depart="5.5" id="veh55" route="67" type="CarA" departSpeed="max"/> 
  <vehicle depart="5.6" id="veh56" route="67" type="CarA" departSpeed="max"/> 
  <vehicle depart="5.7" id="veh57" route="67" type="CarA" departSpeed="max"/> 
  <vehicle depart="5.8" id="veh58" route="67" type="CarA" departSpeed="max"/> 
  <vehicle depart="5.9" id="veh59" route="67" type="CarA" departSpeed="max"/> 
  <vehicle depart="6" id="veh60" route="67" type="CarA" departSpeed="max"/> 
  <vehicle depart="6.1" id="veh61" route="67" type="CarA" departSpeed="max"/> 
  <vehicle depart="6.2" id="veh62" route="67" type="CarA" departSpeed="max"/> 
  <vehicle depart="6.3" id="veh63" route="67" type="CarA" departSpeed="max"/> 
  <vehicle depart="6.4" id="veh64" route="67" type="CarA" departSpeed="max"/> 
  <vehicle depart="6.5" id="veh65" route="67" type="CarA" departSpeed="max"/> 
  <vehicle depart="6.6" id="veh66" route="67" type="CarA" departSpeed="max"/> 
  <vehicle depart="6.7" id="veh67" route="67" type="CarA" departSpeed="max"/> 
  <vehicle depart="6.8" id="veh68" route="67" type="CarA" departSpeed="max"/> 
  <vehicle depart="6.9" id="veh69" route="67" type="CarA" departSpeed="max"/> 
  <vehicle depart="7" id="veh70" route="67" type="CarA" departSpeed="max"/> 
  <vehicle depart="7.1" id="veh71" route="67" type="CarA" departSpeed="max"/> 
  <vehicle depart="7.2" id="veh72" route="67" type="CarA" departSpeed="max"/> 
  <vehicle depart="7.3" id="veh73" route="67" type="CarA" departSpeed="max"/> 
  <vehicle depart="7.4" id="veh74" route="67" type="CarA" departSpeed="max"/> 
  <vehicle depart="7.5" id="veh75" route="67" type="CarA" departSpeed="max"/> 
  <vehicle depart="7.6" id="veh76" route="67" type="CarA" departSpeed="max"/> 
  <vehicle depart="7.7" id="veh77" route="67" type="CarA" departSpeed="max"/> 
  <vehicle depart="7.8" id="veh78" route="67" type="CarA" departSpeed="max"/> 
  <vehicle depart="7.9" id="veh79" route="67" type="CarA" departSpeed="max"/> 
  <vehicle depart="8" id="veh80" route="67" type="CarA" departSpeed="max"/> 
  <vehicle depart="8.1" id="veh81" route="67" type="CarA" departSpeed="max"/> 
  <vehicle depart="8.2" id="veh82" route="67" type="CarA" departSpeed="max"/> 
  <vehicle depart="8.3" id="veh83" route="67" type="CarA" departSpeed="max"/> 
  <vehicle depart="8.4" id="veh84" route="67" type="CarA" departSpeed="max"/> 
  <vehicle depart="8.5" id="veh85" route="67" type="CarA" departSpeed="max"/> 
  <vehicle depart="8.6" id="veh86" route="67" type="CarA" departSpeed="max"/> 
  <vehicle depart="8.7" id="veh87" route="67" type="CarA" departSpeed="max"/> 
  <vehicle depart="8.8" id="veh88" route="67" type="CarA" departSpeed="max"/> 
  <vehicle depart="8.9" id="veh89" route="67" type="CarA" departSpeed="max"/> 
  <vehicle depart="9" id="veh90" route="67" type="CarA" departSpeed="max"/> 
  <vehicle depart="9.1" id="veh91" route="67" type="CarA" departSpeed="max"/> 
  <vehicle depart="9.2" id="veh92" route="67" type="CarA" departSpeed="max"/> 
  <vehicle depart="9.3" id="veh93" route="67" type="CarA" departSpeed="max"/> 
  <vehicle depart="9.4" id="veh94" route="67" type="CarA" departSpeed="max"/> 
  <vehicle depart="9.5" id="veh95" route="67" type="CarA" departSpeed="max"/> 
  <vehicle depart="9.6" id="veh96" route="67" type="CarA" departSpeed="max"/> 
  <vehicle depart="9.7" id="veh97" route="67" type="CarA" departSpeed="max"/> 
  <vehicle depart="9.8" id="veh98" route="67" type="CarA" departSpeed="max"/> 
  <vehicle depart="9.9" id="veh99" route="67" type="CarA" departSpeed="max"/> 
  <vehicle depart="10" id="veh100" route="67" type="CarA" departSpeed="max"/> 
  <vehicle depart="10.1" id="veh101" route="67" type="CarA" departSpeed="max"/> 
  <vehicle depart="10.2" id="veh102" route="67" type="CarA" departSpeed="max"/> 
  <vehicle depart="10.3" id="veh103" route="67" type="CarA" departSpeed="max"/> 
  <vehicle depart="10.4" id="veh104" route="67" type="CarA" departSpeed="max"/> 
  <vehicle depart="10.5" id="veh105" route="67" type="CarA" departSpeed="max"/> 
  <vehicle depart="10.6" id="veh106" route="67" type="CarA" departSpeed="max"/> 
  <vehicle depart="10.7" id="veh107" route="67" type="CarA" departSpeed="max"/> 
  <vehicle depart="10.8" id="veh108" route="67" type="CarA" departSpeed="max"/> 
  <vehicle depart="10.9" id="veh109" route="67" type="CarA" departSpeed="max"/> 
  <vehicle depart="11" id="veh110" route="67" type="CarA" departSpeed="max"/> 
  <vehicle depart="11.1" id="veh111" route="67" type="CarA" departSpeed="max"/> 
  <vehicle depart="11.2" id="veh112" route="67" type="CarA" departSpeed="max"/> 
  <vehicle depart="11.3" id="veh113" route="67" type="CarA" departSpeed="max"/> 
  <vehicle depart="11.4" id="veh114" route="67" type="CarA" departSpeed="max"/> 
  <vehicle depart="11.5" id="veh115" route="67" type="CarA" departSpeed="max"/> 
  <vehicle depart="11.6" id="veh116" route="67" type="CarA" departSpeed="max"/> 
  <vehicle depart="11.7" id="veh117" route="67" type="CarA" departSpeed="max"/> 
  <vehicle depart="11.8" id="veh118" route="67" type="CarA" departSpeed="max"/> 
  <vehicle depart="11.9" id="veh119" route="67" type="CarA" departSpeed="max"/> 
  <vehicle depart="12" id="veh120" route="67" type="CarA" departSpeed="max"/> 
  <vehicle depart="12.1" id="veh121" route="67" type="CarA" departSpeed="max"/> 
  <vehicle depart="12.2" id="veh122" route="67" type="CarA" departSpeed="max"/> 
  <vehicle depart="12.3" id="veh123" route="67" type="CarA" departSpeed="max"/> 
  <vehicle depart="12.4" id="veh124" route="67" type="CarA" departSpeed="max"/> 
  <vehicle depart="12.5" id="veh125" route="67" type="CarA" departSpeed="max"/> 
  <vehicle depart="12.6" id="veh126" route="67" type="CarA" departSpeed="max"/> 
  <vehicle depart="12.7" id="veh127" route="67" type="CarA" departSpeed="max"/> 
  <vehicle depart="12.8" id="veh128" route="67" type="CarA" departSpeed="max"/> 
  <vehicle depart="12.9" id="veh129" route="67" type="CarA" departSpeed="max"/> 
  <vehicle depart="13" id="veh130" route="67" type="CarA" departSpeed="max"/> 
  <vehicle depart="13.1" id="veh131" route="67" type="CarA" departSpeed="max"/> 
  <vehicle depart="13.2" id="veh132" route="67" type="CarA" departSpeed="max"/> 
  <vehicle depart="13.3" id="veh133" route="67" type="CarA" departSpeed="max"/> 
  <vehicle depart="13.4" id="veh134" route="67" type="CarA" departSpeed="max"/> 
  <vehicle depart="13.5" id="veh135" route="67" type="CarA" departSpeed="max"/> 
  <vehicle depart="13.6" id="veh136" route="67" type="CarA" departSpeed="max"/> 
  <vehicle depart="13.7" id="veh137" route="67" type="CarA" departSpeed="max"/> 
  <vehicle depart="13.8" id="veh138" route="67" type="CarA" departSpeed="max"/> 
  <vehicle depart="13.9" id="veh139" route="67" type="CarA" departSpeed="max"/> 
  <vehicle depart="14" id="veh140" route="67" type="CarA" departSpeed="max"/> 
  <vehicle depart="14.1" id="veh141" route="67" type="CarA" departSpeed="max"/> 
  <vehicle depart="14.2" id="veh142" route="67" type="CarA" departSpeed="max"/> 
  <vehicle depart="14.3" id="veh143" route="67" type="CarA" departSpeed="max"/> 
  <vehicle depart="14.4" id="veh144" route="67" type="CarA" departSpeed="max"/> 
  <vehicle depart="14.5" id="veh145" route="67" type="CarA" departSpeed="max"/> 
  <vehicle depart="14.6" id="veh146" route="67" type="CarA" departSpeed="max"/> 
  <vehicle depart="14.7" id="veh147" route="67" type="CarA" departSpeed="max"/> 
  <vehicle depart="14.8" id="veh148" route="67" type="CarA" departSpeed="max"/> 
  <vehicle depart="14.9" id="veh149" route="67" type="CarA" departSpeed="max"/> 
  <vehicle depart="15" id="veh150" route="67" type="CarA" departSpeed="max"/> 
  <vehicle depart="15.1" id="veh151" route="67" type="CarA" departSpeed="max"/> 
  <vehicle depart="15.2" id="veh152" route="67" type="CarA" departSpeed="max"/> 
  <vehicle depart="15.3" id="veh153" route="67" type="CarA" departSpeed="max"/> 
  <vehicle depart="15.4" id="veh154" route="67" type="CarA" departSpeed="max"/> 
  <vehicle depart="15.5" id="veh155" route="67" type="CarA" departSpeed="max"/> 
  <vehicle depart="15.6" id="veh156" route="67" type="CarA" departSpeed="max"/> 
  <vehicle depart="15.7" id="veh157" route="67" type="CarA" departSpeed="max"/> 
  <vehicle depart="15.8" id="veh158" route="67" type="CarA" departSpeed="max"/> 
  <vehicle depart="15.9" id="veh159" route="67" type="CarA" departSpeed="max"/> 
  <vehicle depart="16" id="veh160" route="67" type="CarA" departSpeed="max"/> 
  <vehicle depart="16.1" id="veh161" route="67" type="CarA" departSpeed="max"/> 
  <vehicle depart="16.2" id="veh162" route="67" type="CarA" departSpeed="max"/> 
  <vehicle depart="16.3" id="veh163" route="67" type="CarA" departSpeed="max"/> 
  <vehicle depart="16.4" id="veh164" route="67" type="CarA" departSpeed="max"/> 
  <vehicle depart="16.5" id="veh165" route="67" type="CarA" departSpeed="max"/> 
  <vehicle depart="16.6" id="veh166" route="67" type="CarA" departSpeed="max"/> 
  <vehicle depart="16.7" id="veh167" route="67" type="CarA" departSpeed="max"/> 
  <vehicle depart="16.8" id="veh168" route="67" type="CarA" departSpeed="max"/> 
  <vehicle depart="16.9" id="veh169" route="67" type="CarA" departSpeed="max"/> 
  <vehicle depart="17" id="veh170" route="67" type="CarA" departSpeed="max"/> 
  <vehicle depart="17.1" id="veh171" route="67" type="CarA" departSpeed="max"/> 
  <vehicle depart="17.2" id="veh172" route="67" type="CarA" departSpeed="max"/> 
  <vehicle depart="17.3" id="veh173" route="67" type="CarA" departSpeed="max"/> 
  <vehicle depart="17.4" id="veh174" route="67" type="CarA" departSpeed="max"/> 
  <vehicle depart="17.5" id="veh175" route="67" type="CarA" departSpeed="max"/> 
  <vehicle depart="17.6" id="veh176" route="67" type="CarA" departSpeed="max"/> 
  <vehicle depart="17.7" id="veh177" route="67" type="CarA" departSpeed="max"/> 
  <vehicle depart="17.8" id="veh178" route="67" type="CarA" departSpeed="max"/> 
  <vehicle depart="17.9" id="veh179" route="67" type="CarA" departSpeed="max"/> 
  <vehicle depart="18" id="veh180" route="67" type="CarA" departSpeed="max"/> 
  <vehicle depart="18.1" id="veh181" route="67" type="CarA" departSpeed="max"/> 
  <vehicle depart="18.2" id="veh182" route="67" type="CarA" departSpeed="max"/> 
  <vehicle depart="18.3" id="veh183" route="67" type="CarA" departSpeed="max"/> 
  <vehicle depart="18.4" id="veh184" route="67" type="CarA" departSpeed="max"/> 
  <vehicle depart="18.5" id="veh185" route="67" type="CarA" departSpeed="max"/> 
  <vehicle depart="18.6" id="veh186" route="67" type="CarA" departSpeed="max"/> 
  <vehicle depart="18.7" id="veh187" route="67" type="CarA" departSpeed="max"/> 
  <vehicle depart="18.8" id="veh188" route="67" type="CarA" departSpeed="max"/> 
  <vehicle depart="18.9" id="veh189" route="67" type="CarA" departSpeed="max"/> 
  <vehicle depart="19" id="veh190" route="67" type="CarA" departSpeed="max"/> 
  <vehicle depart="19.1" id="veh191" route="67" type="CarA" departSpeed="max"/> 
  <vehicle depart="19.2" id="veh192" route="67" type="CarA" departSpeed="max"/> 
  <vehicle depart="19.3" id="veh193" route="67" type="CarA" departSpeed="max"/> 
  <vehicle depart="19.4" id="veh194" route="67" type="CarA" departSpeed="max"/> 
  <vehicle depart="19.5" id="veh195" route="67" type="CarA" departSpeed="max"/> 
  <vehicle depart="19.6" id="veh196" route="67" type="CarA" departSpeed="max"/> 
  <vehicle depart="19.7" id="veh197" route="67" type="CarA" departSpeed="max"/> 
  <vehicle depart="19.8" id="veh198" route="67" type="CarA" departSpeed="max"/> 
  <vehicle depart="19.9" id="veh199" route="67" type="CarA" departSpeed="max"/> 
  <vehicle depart="20" id="veh200" route="67" type="CarA" departSpeed="max"/> 
  <vehicle depart="20.1" id="veh201" route="67" type="CarA" departSpeed="max"/> 
  <vehicle depart="20.2" id="veh202" route="67" type="CarA" departSpeed="max"/> 
  <vehicle depart="20.3" id="veh203" route="67" type="CarA" departSpeed="max"/> 
  <vehicle depart="20.4" id="veh204" route="67" type="CarA" departSpeed="max"/> 
  <vehicle depart="20.5" id="veh205" route="67" type="CarA" departSpeed="max"/> 
  <vehicle depart="20.6" id="veh206" route="67" type="CarA" departSpeed="max"/> 
  <vehicle depart="20.7" id="veh207" route="67" type="CarA" departSpeed="max"/> 
  <vehicle depart="20.8" id="veh208" route="67" type="CarA" departSpeed="max"/> 
  <vehicle depart="20.9" id="veh209" route="67" type="CarA" departSpeed="max"/> 
  <vehicle depart="21" id="veh210" route="67" type="CarA" departSpeed="max"/> 
  <vehicle depart="21.1" id="veh211" route="67" type="CarA" departSpeed="max"/> 
  <vehicle depart="21.2" id="veh212" route="67" type="CarA" departSpeed="max"/> 
  <vehicle depart="21.3" id="veh213" route="67" type="CarA" departSpeed="max"/> 
  <vehicle depart="21.4" id="veh214" route="67" type="CarA" departSpeed="max"/> 
  <vehicle depart="21.5" id="veh215" route="67" type="CarA" departSpeed="max"/> 
  <vehicle depart="21.6" id="veh216" route="67" type="CarA" departSpeed="max"/> 
  <vehicle depart="21.7" id="veh217" route="67" type="CarA" departSpeed="max"/> 
  <vehicle depart="21.8" id="veh218" route="67" type="CarA" departSpeed="max"/> 
  <vehicle depart="21.9" id="veh219" route="67" type="CarA" departSpeed="max"/> 
  <vehicle depart="22" id="veh220" route="67" type="CarA" departSpeed="max"/> 
  <vehicle depart="22.1" id="veh221" route="67" type="CarA" departSpeed="max"/> 
  <vehicle depart="22.2" id="veh222" route="67" type="CarA" departSpeed="max"/> 
  <vehicle depart="22.3" id="veh223" route="67" type="CarA" departSpeed="max"/> 
  <vehicle depart="22.4" id="veh224" route="67" type="CarA" departSpeed="max"/> 
  <vehicle depart="22.5" id="veh225" route="67" type="CarA" departSpeed="max"/> 
  <vehicle depart="22.6" id="veh226" route="67" type="CarA" departSpeed="max"/> 
  <vehicle depart="22.7" id="veh227" route="67" type="CarA" departSpeed="max"/> 
  <vehicle depart="22.8" id="veh228" route="67" type="CarA" departSpeed="max"/> 
  <vehicle depart="22.9" id="veh229" route="67" type="CarA" departSpeed="max"/> 
  <vehicle depart="23" id="veh230" route="67" type="CarA" departSpeed="max"/> 
  <vehicle depart="23.1" id="veh231" route="67" type="CarA" departSpeed="max"/> 
  <vehicle depart="23.2" id="veh232" route="67" type="CarA" departSpeed="max"/> 
  <vehicle depart="23.3" id="veh233" route="67" type="CarA" departSpeed="max"/> 
  <vehicle depart="23.4" id="veh234" route="67" type="CarA" departSpeed="max"/> 
  <vehicle depart="23.5" id="veh235" route="67" type="CarA" departSpeed="max"/> 
  <vehicle depart="23.6" id="veh236" route="67" type="CarA" departSpeed="max"/> 
  <vehicle depart="23.7" id="veh237" route="67" type="CarA" departSpeed="max"/> 
  <vehicle depart="23.8" id="veh238" route="67" type="CarA" departSpeed="max"/> 
  <vehicle depart="23.9" id="veh239" route="67" type="CarA" departSpeed="max"/> 
  <vehicle depart="24" id="veh240" route="67" type="CarA" departSpeed="max"/> 
  <vehicle depart="24.1" id="veh241" route="67" type="CarA" departSpeed="max"/> 
  <vehicle depart="24.2" id="veh242" route="67" type="CarA" departSpeed="max"/> 
  <vehicle depart="24.3" id="veh243" route="67" type="CarA" departSpeed="max"/> 
  <vehicle depart="24.4" id="veh244" route="67" type="CarA" departSpeed="max"/> 
  <vehicle depart="24.5" id="veh245" route="67" type="CarA" departSpeed="max"/> 
  <vehicle depart="24.6" id="veh246" route="67" type="CarA" departSpeed="max"/> 
  <vehicle depart="24.7" id="veh247" route="67" type="CarA" departSpeed="max"/> 
  <vehicle depart="24.8" id="veh248" route="67" type="CarA" departSpeed="max"/> 
  <vehicle depart="24.9" id="veh249" route="67" type="CarA" departSpeed="max"/> 
  <vehicle depart="25" id="veh250" route="67" type="CarA" departSpeed="max"/> 
  <vehicle depart="25.1" id="veh251" route="67" type="CarA" departSpeed="max"/> 
  <vehicle depart="25.2" id="veh252" route="67" type="CarA" departSpeed="max"/> 
  <vehicle depart="25.3" id="veh253" route="67" type="CarA" departSpeed="max"/> 
  <vehicle depart="25.4" id="veh254" route="67" type="CarA" departSpeed="max"/> 
  <vehicle depart="25.5" id="veh255" route="67" type="CarA" departSpeed="max"/> 
  <vehicle depart="25.6" id="veh256" route="67" type="CarA" departSpeed="max"/> 
  <vehicle depart="25.7" id="veh257" route="67" type="CarA" departSpeed="max"/> 
  <vehicle depart="25.8" id="veh258" route="67" type="CarA" departSpeed="max"/> 
  <vehicle depart="25.9" id="veh259" route="67" type="CarA" departSpeed="max"/> 
  <vehicle depart="26" id="veh260" route="67" type="CarA" departSpeed="max"/> 
  <vehicle depart="26.1" id="veh261" route="67" type="CarA" departSpeed="max"/> 
  <vehicle depart="26.2" id="veh262" route="67" type="CarA" departSpeed="max"/> 
  <vehicle depart="26.3" id="veh263" route="67" type="CarA" departSpeed="max"/> 
  <vehicle depart="26.4" id="veh264" route="67" type="CarA" departSpeed="max"/> 
  <vehicle depart="26.5" id="veh265" route="67" type="CarA" departSpeed="max"/> 
  <vehicle depart="26.6" id="veh266" route="67" type="CarA" departSpeed="max"/> 
  <vehicle depart="26.7" id="veh267" route="67" type="CarA" departSpeed="max"/> 
  <vehicle depart="26.8" id="veh268" route="67" type="CarA" departSpeed="max"/> 
  <vehicle depart="26.9" id="veh269" route="67" type="CarA" departSpeed="max"/> 
  <vehicle depart="27" id="veh270" route="67" type="CarA" departSpeed="max"/> 
  <vehicle depart="27.1" id="veh271" route="67" type="CarA" departSpeed="max"/> 
  <vehicle depart="27.2" id="veh272" route="67" type="CarA" departSpeed="max"/> 
  <vehicle depart="27.3" id="veh273" route="67" type="CarA" departSpeed="max"/> 
  <vehicle depart="27.4" id="veh274" route="67" type="CarA" departSpeed="max"/> 
  <vehicle depart="27.5" id="veh275" route="67" type="CarA" departSpeed="max"/> 
  <vehicle depart="27.6" id="veh276" route="67" type="CarA" departSpeed="max"/> 
  <vehicle depart="27.7" id="veh277" route="67" type="CarA" departSpeed="max"/> 
  <vehicle depart="27.8" id="veh278" route="67" type="CarA" departSpeed="max"/> 
  <vehicle depart="27.9" id="veh279" route="67" type="CarA" departSpeed="max"/> 
  <vehicle depart="28" id="veh280" route="67" type="CarA" departSpeed="max"/> 
  <vehicle depart="28.1" id="veh281" route="67" type="CarA" departSpeed="max"/> 
  <vehicle depart="28.2" id="veh282" route="67" type="CarA" departSpeed="max"/> 
  <vehicle depart="28.3" id="veh283" route="67" type="CarA" departSpeed="max"/> 
  <vehicle depart="28.4" id="veh284" route="67" type="CarA" departSpeed="max"/> 
  <vehicle depart="28.5" id="veh285" route="67" type="CarA" departSpeed="max"/> 
  <vehicle depart="28.6" id="veh286" route="67" type="CarA" departSpeed="max"/> 
  <vehicle depart="28.7" id="veh287" route="67" type="CarA" departSpeed="max"/> 
  <vehicle depart="28.8" id="veh288" route="67" type="CarA" departSpeed="max"/> 
  <vehicle depart="28.9" id="veh289" route="67" type="CarA" departSpeed="max"/> 
  <vehicle depart="29" id="veh290" route="67" type="CarA" departSpeed="max"/> 
  <vehicle depart="29.1" id="veh291" route="67" type="CarA" departSpeed="max"/> 
  <vehicle depart="29.2" id="veh292" route="67" type="CarA" departSpeed="max"/> 
  <vehicle depart="29.3" id="veh293" route="67" type="CarA" departSpeed="max"/> 
  <vehicle depart="29.4" id="veh294" route="67" type="CarA" departSpeed="max"/> 
  <vehicle depart="29.5" id="veh295" route="67" type="CarA" departSpeed="max"/> 
  <vehicle depart="29.6" id="veh296" route="67" type="CarA" departSpeed="max"/> 
  <vehicle depart="29.7" id="veh297" route="67" type="CarA" departSpeed="max"/> 
  <vehicle depart="29.8" id="veh298" route="67" type="CarA" departSpeed="max"/> 
  <vehicle depart="29.9" id="veh299" route="67" type="CarA" departSpeed="max"/> 
  <vehicle depart="30" id="veh300" route="67" type="CarA" departSpeed="max"/> 
  <vehicle depart="30.1" id="veh301" route="67" type="CarA" departSpeed="max"/> 
  <vehicle depart="30.2" id="veh302" route="67" type="CarA" departSpeed="max"/> 
  <vehicle depart="30.3" id="veh303" route="67" type="CarA" departSpeed="max"/> 
  <vehicle depart="30.4" id="veh304" route="67" type="CarA" departSpeed="max"/> 
  <vehicle depart="30.5" id="veh305" route="67" type="CarA" departSpeed="max"/> 
  <vehicle depart="30.6" id="veh306" route="67" type="CarA" departSpeed="max"/> 
  <vehicle depart="30.7" id="veh307" route="67" type="CarA" departSpeed="max"/> 
  <vehicle depart="30.8" id="veh308" route="67" type="CarA" departSpeed="max"/> 
  <vehicle depart="30.9" id="veh309" route="67" type="CarA" departSpeed="max"/> 
  <vehicle depart="31" id="veh310" route="67" type="CarA" departSpeed="max"/> 
  <vehicle depart="31.1" id="veh311" route="67" type="CarA" departSpeed="max"/> 
  <vehicle depart="31.2" id="veh312" route="67" type="CarA" departSpeed="max"/> 
  <vehicle depart="31.3" id="veh313" route="67" type="CarA" departSpeed="max"/> 
  <vehicle depart="31.4" id="veh314" route="67" type="CarA" departSpeed="max"/> 
  <vehicle depart="31.5" id="veh315" route="67" type="CarA" departSpeed="max"/> 
  <vehicle depart="31.6" id="veh316" route="67" type="CarA" departSpeed="max"/> 
  <vehicle depart="31.7" id="veh317" route="67" type="CarA" departSpeed="max"/> 
  <vehicle depart="31.8" id="veh318" route="67" type="CarA" departSpeed="max"/> 
  <vehicle depart="31.9" id="veh319" route="67" type="CarA" departSpeed="max"/> 
  <vehicle depart="32" id="veh320" route="67" type="CarA" departSpeed="max"/> 
  <vehicle depart="32.1" id="veh321" route="67" type="CarA" departSpeed="max"/> 
  <vehicle depart="32.2" id="veh322" route="67" type="CarA" departSpeed="max"/> 
  <vehicle depart="32.3" id="veh323" route="67" type="CarA" departSpeed="max"/> 
  <vehicle depart="32.4" id="veh324" route="67" type="CarA" departSpeed="max"/> 
  <vehicle depart="32.5" id="veh325" route="67" type="CarA" departSpeed="max"/> 
  <vehicle depart="32.6" id="veh326" route="67" type="CarA" departSpeed="max"/> 
  <vehicle depart="32.7" id="veh327" route="67" type="CarA" departSpeed="max"/> 
  <vehicle depart="32.8" id="veh328" route="67" type="CarA" departSpeed="max"/> 
  <vehicle depart="32.9" id="veh329" route="67" type="CarA" departSpeed="max"/> 
  <vehicle depart="33" id="veh330" route="67" type="CarA" departSpeed="max"/> 
  <vehicle depart="33.1" id="veh331" route="67" type="CarA" departSpeed="max"/> 
  <vehicle depart="33.2" id="veh332" route="67" type="CarA" departSpeed="max"/> 
  <vehicle depart="33.3" id="veh333" route="67" type="CarA" departSpeed="max"/> 
  <vehicle depart="33.4" id="veh334" route="67" type="CarA" departSpeed="max"/> 
  <vehicle depart="33.5" id="veh335" route="67" type="CarA" departSpeed="max"/> 
  <vehicle depart="33.6" id="veh336" route="67" type="CarA" departSpeed="max"/> 
  <vehicle depart="33.7" id="veh337" route="67" type="CarA" departSpeed="max"/> 
  <vehicle depart="33.8" id="veh338" route="67" type="CarA" departSpeed="max"/> 
  <vehicle depart="33.9" id="veh339" route="67" type="CarA" departSpeed="max"/> 
  <vehicle depart="34" id="veh340" route="67" type="CarA" departSpeed="max"/> 
  <vehicle depart="34.1" id="veh341" route="67" type="CarA" departSpeed="max"/> 
  <vehicle depart="34.2" id="veh342" route="67" type="CarA" departSpeed="max"/> 
  <vehicle depart="34.3" id="veh343" route="67" type="CarA" departSpeed="max"/> 
  <vehicle depart="34.4" id="veh344" route="67" type="CarA" departSpeed="max"/> 
  <vehicle depart="34.5" id="veh345" route="67" type="CarA" departSpeed="max"/> 
  <vehicle depart="34.6" id="veh346" route="67" type="CarA" departSpeed="max"/> 
  <vehicle depart="34.7" id="veh347" route="67" type="CarA" departSpeed="max"/> 
  <vehicle depart="34.8" id="veh348" route="67" type="CarA" departSpeed="max"/> 
  <vehicle depart="34.9" id="veh349" route="67" type="CarA" departSpeed="max"/> 
  <vehicle depart="35" id="veh350" route="67" type="CarA" departSpeed="max"/> 
  <vehicle depart="35.1" id="veh351" route="67" type="CarA" departSpeed="max"/> 
  <vehicle depart="35.2" id="veh352" route="67" type="CarA" departSpeed="max"/> 
  <vehicle depart="35.3" id="veh353" route="67" type="CarA" departSpeed="max"/> 
  <vehicle depart="35.4" id="veh354" route="67" type="CarA" departSpeed="max"/> 
  <vehicle depart="35.5" id="veh355" route="67" type="CarA" departSpeed="max"/> 
  <vehicle depart="35.6" id="veh356" route="67" type="CarA" departSpeed="max"/> 
  <vehicle depart="35.7" id="veh357" route="67" type="CarA" departSpeed="max"/> 
  <vehicle depart="35.8" id="veh358" route="67" type="CarA" departSpeed="max"/> 
  <vehicle depart="35.9" id="veh359" route="67" type="CarA" departSpeed="max"/> 
  <vehicle depart="36" id="veh360" route="67" type="CarA" departSpeed="max"/> 
  <vehicle depart="36.1" id="veh361" route="67" type="CarA" departSpeed="max"/> 
  <vehicle depart="36.2" id="veh362" route="67" type="CarA" departSpeed="max"/> 
  <vehicle depart="36.3" id="veh363" route="67" type="CarA" departSpeed="max"/> 
  <vehicle depart="36.4" id="veh364" route="67" type="CarA" departSpeed="max"/> 
  <vehicle depart="36.5" id="veh365" route="67" type="CarA" departSpeed="max"/> 
  <vehicle depart="36.6" id="veh366" route="67" type="CarA" departSpeed="max"/> 
  <vehicle depart="36.7" id="veh367" route="67" type="CarA" departSpeed="max"/> 
  <vehicle depart="36.8" id="veh368" route="67" type="CarA" departSpeed="max"/> 
  <vehicle depart="36.9" id="veh369" route="67" type="CarA" departSpeed="max"/> 