<additional>
	<e1Detector id="sensor" lane="1to2_0" pos="450" freq="1" file="data.out"/>
</additional> 
