<nodes>
    <node id="0" x="0.0" y="0.0" />
    <node id="1" x="-196.4" y="-126.5" />
    <node id="2" x="-187.2" y="-124.2" />
    <node id="4" x="-284.1" y="-79.9" />
	<node id="5" x="-276.7" y="-93.2" />
	<node id="6" x="-202" y="96.5" />
    <node id="7" x="-185.4" y="103.2" />
    <node id="8" x="-191.8" y="213" />
    <node id="9" x="-156.8" y="88.7" />
	<node id="65" x="-184.5" y="-18.9" />
    <node id="66" x="-199.2" y="-38.8" />
	<node id="67" x="-187.2" y="-33.3" />
	<node id="68" x="-196.4" y="-25.5" />
    <node id="69" x="-136.5" y="92.1" />
    <node id="70" x="-122.7" y="106.5" />
    <node id="71" x="-126.3" y="132.0" />
	<node id="72" x="-150.3" y="142.0" />
    <node id="73" x="-95.9" y="5.5" />
    <node id="74" x="-95.0" y="-8.9" />
</nodes>