<?xml version="1.0" encoding="UTF-8"?>
<edges xmlns:xsi="http://www.w3.org/2001/XMLSchema-instance" xsi:noNamespaceSchemaLocation="http://sumo.dlr.de/xsd/edges_file.xsd">
    <edge id="G1" from="1" to="2" type="a"/>
    <edge id="G2" from="2" to="4" type="a"/>
    <edge id="G3" from="4" to="11" type="a"/>
    <edge id="G1b" from="2" to="1" type="a"/>
    <edge id="G2b" from="4" to="2" type="a"/>
    <edge id="G3b" from="11" to="4" type="a"/>
    
    <edge id="G6"  from="6" to="1" type="a"/>
    <edge id="G6b" from="1" to="6" type="a"/>
    <edge id="G7"  from="7" to="6" type="a"/>
    <edge id="G7b" from="6" to="7" type="a"/>
    <edge id="G8"  from="8" to="7" type="a"/>
    <edge id="G8b" from="7" to="8" type="a"/>
    
    <edge id="H1"  from="40" to="8" type="a"/>
    <edge id="H1b" from="8" to="40" type="a"/>
    <edge id="H2"  from="41" to="40" type="a"/>
    <edge id="H2b" from="40" to="41" type="a"/>
    <edge id="H3"  from="42" to="41" type="a"/>
    <edge id="H3b" from="41" to="42" type="a"/>
    <edge id="H4"  from="43" to="42" type="a"/>
    <edge id="H4b" from="42" to="43" type="a"/>
    <edge id="H5"  from="44" to="43" type="a"/>
    <edge id="H5b" from="43" to="44" type="a"/>
    <edge id="H6"  from="45" to="44" type="a"/>
    <edge id="H6b" from="44" to="45" type="a"/>
    <edge id="H7"  from="46" to="45" type="a"/>
    <edge id="H7b" from="45" to="46" type="a"/>
    <edge id="H8"  from="47" to="46" type="a"/>
    <edge id="H8b" from="46" to="47" type="a"/>
    <edge id="H9"  from="48" to="47" type="a"/>
    <edge id="H9b" from="47" to="48" type="a"/>
    <edge id="H10"  from="49" to="48" type="a"/>
    <edge id="H10b" from="48" to="49" type="a"/>
    <edge id="H11"  from="50" to="49" type="a"/>
    <edge id="H11b" from="49" to="50" type="a"/>
    
    <edge id="E1" from="3" to="2" type="b"/>
    <edge id="E2" from="4" to="5" type="b"/>
    <edge id="E1b" from="2" to="3" type="b"/>
    <edge id="E2b" from="5" to="4" type="b"/>

    <edge id="M1" from="11" to="12" type="c"/>
    <edge id="G4" from="11" to="13" type="a"/>
    <edge id="G4b" from="13" to="11" type="a"/>
    <edge id="N2" from="13" to="12" type="a"/>
    <edge id="N2b" from="12" to="13" type="a"/>
    
    <edge id="N1" from="21" to="13" type="a"/>
    <edge id="N1b" from="13" to="21" type="a"/>
    <edge id="G5" from="22" to="13" type="a"/>
    <edge id="G5b" from="13" to="22" type="a"/>
    
    <edge id="N3" from="12" to="31" type="a"/>
    <edge id="N4" from="31" to="32" type="a"/>
    <edge id="N3b" from="31" to="12" type="a"/>
    <edge id="N4b" from="32" to="31" type="a"/>
    <edge id="E3" from="31" to="33" type="b"/>
    
    <edge id="F1"  from="49" to="60" type="b"/>
    <edge id="F1b" from="60" to="49" type="b"/>
    <edge id="F2"  from="48" to="61" type="b"/>
    <edge id="F3"  from="62" to="47" type="aa"/>
    <edge id="F4"  from="47" to="63" type="b"/>
    <edge id="F4b" from="63" to="47" type="b"/>
    <edge id="F5"  from="46" to="64" type="b"/>
    <edge id="F5b" from="64" to="46" type="b"/>
    <edge id="F6"  from="46" to="65" type="b"/>
    <edge id="F6b" from="65" to="46" type="b"/>
    <edge id="F7"  from="45" to="66" type="b"/>
    <edge id="F7b" from="66" to="45" type="b"/>
    <edge id="F8"  from="45" to="67" type="b"/>
    <edge id="F8b" from="67" to="45" type="b"/>
    <edge id="F9"  from="44" to="68" type="b"/>
    <edge id="F9b" from="68" to="44" type="b"/>
    <edge id="F10"  from="44" to="69" type="b"/>
    <edge id="F10b" from="69" to="44" type="b"/>
    <edge id="F11"  from="43" to="70" type="b"/>
    <edge id="F11b" from="70" to="43" type="b"/>
    <edge id="F12"  from="43" to="71" type="b"/>
    <edge id="F12b" from="71" to="43" type="b"/>
    <edge id="F13"  from="42" to="72" type="aaa"/>
    <edge id="F13b" from="72" to="42" type="aaa"/>
    <edge id="F14"  from="42" to="73" type="aaa"/>
    <edge id="F14b" from="73" to="42" type="aaa"/>
    <edge id="F15"  from="41" to="74" type="b"/>
    <edge id="F15b" from="74" to="41" type="b"/>
    <edge id="F16" from="75" to="41" type="aaa"/>
    <edge id="F17" from="40" to="76" type="aa"/>
    <edge id="F18"  from="7" to="77" type="c"/>
    <edge id="F18b" from="77" to="7" type="b"/>
    
</edges>