<?xml version="1.0" encoding="UTF-8"?>

<!-- generated on 06/02/16 21:23:19 by SUMO netconvert Version 0.24.0
<?xml version="1.0" encoding="UTF-8"?>

<configuration xmlns:xsi="http://www.w3.org/2001/XMLSchema-instance" xsi:noNamespaceSchemaLocation="http://sumo.dlr.de/xsd/netconvertConfiguration.xsd">

    <input>
        <node-files value="huntcol.nod.xml"/>
        <edge-files value="huntcol.edg.xml"/>
        <type-files value="huntcol.typ.xml"/>
    </input>

    <output>
        <output-file value="huntcol.net.xml"/>
    </output>

</configuration>
-->

<net version="0.13" xmlns:xsi="http://www.w3.org/2001/XMLSchema-instance" xsi:noNamespaceSchemaLocation="http://sumo.dlr.de/xsd/net_file.xsd">

    <location netOffset="50.00,-8.00" convBoundary="0.00,0.00,5130.00,1182.00" origBoundary="-50.00,8.00,5080.00,1190.00" projParameter="!"/>

    <type id="a" priority="3" numLanes="1" speed="30.00"/>
    <type id="aa" priority="3" numLanes="1" speed="30.00"/>
    <type id="aaa" priority="3" numLanes="1" speed="40.00"/>
    <type id="b" priority="2" numLanes="1" speed="20.00"/>
    <type id="c" priority="1" numLanes="1" speed="20.00"/>

    <edge id=":1_0" function="internal">
        <lane id=":1_0_0" index="0" speed="30.00" length="2.25" shape="2196.42,1008.13 2194.23,1008.65"/>
    </edge>
    <edge id=":1_1" function="internal">
        <lane id=":1_1_0" index="0" speed="30.00" length="2.41" shape="2196.42,1008.13 2194.95,1007.95 2194.21,1007.39"/>
    </edge>
    <edge id=":1_4" function="internal">
        <lane id=":1_4_0" index="0" speed="30.00" length="2.41" shape="2194.21,1007.39 2194.21,1006.47 2194.95,1005.18"/>
    </edge>
    <edge id=":1_2" function="internal">
        <lane id=":1_2_0" index="0" speed="30.00" length="0.74" shape="2194.23,1005.35 2194.95,1005.18"/>
    </edge>
    <edge id=":1_3" function="internal">
        <lane id=":1_3_0" index="0" speed="30.00" length="2.03" shape="2194.23,1005.35 2195.47,1006.18 2195.71,1006.66"/>
    </edge>
    <edge id=":1_5" function="internal">
        <lane id=":1_5_0" index="0" speed="30.00" length="2.79" shape="2195.71,1006.66 2195.88,1007.00 2195.47,1007.83 2194.23,1008.65"/>
    </edge>
    <edge id=":11_0" function="internal">
        <lane id=":11_0_0" index="0" speed="25.00" length="7.22" shape="182.43,998.67 175.81,1001.56"/>
    </edge>
    <edge id=":11_1" function="internal">
        <lane id=":11_1_0" index="0" speed="30.00" length="7.36" shape="182.43,998.67 175.17,997.49"/>
    </edge>
    <edge id=":11_2" function="internal">
        <lane id=":11_2_0" index="0" speed="30.00" length="2.71" shape="182.43,998.67 181.20,997.83 180.79,997.01 180.93,996.74"/>
    </edge>
    <edge id=":11_6" function="internal">
        <lane id=":11_6_0" index="0" speed="30.00" length="2.11" shape="180.93,996.74 181.21,996.18 182.45,995.37"/>
    </edge>
    <edge id=":11_3" function="internal">
        <lane id=":11_3_0" index="0" speed="30.00" length="6.57" shape="175.97,994.29 182.45,995.37"/>
    </edge>
    <edge id=":11_4" function="internal">
        <lane id=":11_4_0" index="0" speed="25.00" length="4.58" shape="175.97,994.29 179.04,995.51 179.71,996.60"/>
    </edge>
    <edge id=":11_5" function="internal">
        <lane id=":11_5_0" index="0" speed="30.00" length="2.31" shape="175.97,994.29 176.97,995.39 177.15,996.19"/>
    </edge>
    <edge id=":11_7" function="internal">
        <lane id=":11_7_0" index="0" speed="25.00" length="6.87" shape="179.71,996.60 180.03,997.13 178.96,999.15 175.81,1001.56"/>
    </edge>
    <edge id=":11_8" function="internal">
        <lane id=":11_8_0" index="0" speed="30.00" length="2.51" shape="177.15,996.19 177.17,996.29 176.57,996.99 175.17,997.49"/>
    </edge>
    <edge id=":12_0" function="internal">
        <lane id=":12_0_0" index="0" speed="30.00" length="6.77" shape="138.35,1025.30 138.35,1018.53"/>
    </edge>
    <edge id=":12_1" function="internal">
        <lane id=":12_1_0" index="0" speed="30.00" length="2.41" shape="138.35,1025.30 139.17,1024.06 140.00,1023.65"/>
    </edge>
    <edge id=":12_6" function="internal">
        <lane id=":12_6_0" index="0" speed="30.00" length="2.41" shape="140.00,1023.65 140.83,1024.06 141.65,1025.30"/>
    </edge>
    <edge id=":12_2" function="internal">
        <lane id=":12_2_0" index="0" speed="25.00" length="6.24" shape="145.37,1020.59 143.74,1021.76 142.58,1022.93 141.88,1024.11 141.65,1025.30"/>
    </edge>
    <edge id=":12_3" function="internal">
        <lane id=":12_3_0" index="0" speed="25.00" length="9.99" shape="145.37,1020.59 142.30,1022.11 140.10,1022.27 138.79,1021.08 138.35,1018.53"/>
    </edge>
    <edge id=":12_4" function="internal">
        <lane id=":12_4_0" index="0" speed="30.00" length="6.77" shape="141.65,1018.53 141.65,1025.30"/>
    </edge>
    <edge id=":12_5" function="internal">
        <lane id=":12_5_0" index="0" speed="30.00" length="2.41" shape="141.65,1018.53 140.83,1019.77 140.00,1020.18"/>
    </edge>
    <edge id=":12_7" function="internal">
        <lane id=":12_7_0" index="0" speed="30.00" length="2.41" shape="140.00,1020.18 139.17,1019.77 138.35,1018.53"/>
    </edge>
    <edge id=":13_0" function="internal">
        <lane id=":13_0_0" index="0" speed="30.00" length="10.13" shape="138.35,992.66 138.01,990.39 136.99,988.29 135.30,986.37 132.92,984.63"/>
    </edge>
    <edge id=":13_1" function="internal">
        <lane id=":13_1_0" index="0" speed="30.00" length="12.94" shape="138.35,992.66 138.35,989.23 138.35,986.19 138.35,983.15 138.35,979.72"/>
    </edge>
    <edge id=":13_2" function="internal">
        <lane id=":13_2_0" index="0" speed="30.00" length="5.50" shape="138.35,992.66 138.82,989.38 140.05,987.58"/>
    </edge>
    <edge id=":13_3" function="internal">
        <lane id=":13_3_0" index="0" speed="30.00" length="2.41" shape="138.35,992.66 139.17,991.43 140.00,991.01"/>
    </edge>
    <edge id=":13_16" function="internal">
        <lane id=":13_16_0" index="0" speed="30.00" length="6.16" shape="140.05,987.58 140.24,987.30 142.59,986.43 145.89,986.77"/>
    </edge>
    <edge id=":13_17" function="internal">
        <lane id=":13_17_0" index="0" speed="30.00" length="2.41" shape="140.00,991.01 140.83,991.43 141.65,992.66"/>
    </edge>
    <edge id=":13_4" function="internal">
        <lane id=":13_4_0" index="0" speed="30.00" length="5.32" shape="145.09,989.97 143.59,989.82 142.51,990.22 141.87,991.16 141.65,992.66"/>
    </edge>
    <edge id=":13_5" function="internal">
        <lane id=":13_5_0" index="0" speed="30.00" length="13.35" shape="145.09,989.97 141.75,988.99 138.79,987.82 135.95,986.39 132.92,984.63"/>
    </edge>
    <edge id=":13_6" function="internal">
        <lane id=":13_6_0" index="0" speed="30.00" length="6.21" shape="145.09,989.97 142.14,988.70 140.04,986.57"/>
    </edge>
    <edge id=":13_7" function="internal">
        <lane id=":13_7_0" index="0" speed="30.00" length="2.53" shape="145.09,989.97 144.09,988.87 143.89,987.97 143.97,987.88"/>
    </edge>
    <edge id=":13_18" function="internal">
        <lane id=":13_18_0" index="0" speed="30.00" length="7.12" shape="140.04,986.57 138.77,983.58 138.35,979.72"/>
    </edge>
    <edge id=":13_19" function="internal">
        <lane id=":13_19_0" index="0" speed="30.00" length="2.29" shape="143.97,987.88 144.49,987.27 145.89,986.77"/>
    </edge>
    <edge id=":13_8" function="internal">
        <lane id=":13_8_0" index="0" speed="30.00" length="8.92" shape="141.65,979.72 141.92,982.41 142.71,984.48 144.04,985.93 145.89,986.77"/>
    </edge>
    <edge id=":13_9" function="internal">
        <lane id=":13_9_0" index="0" speed="30.00" length="12.94" shape="141.65,979.72 141.65,983.15 141.65,986.19 141.65,989.23 141.65,992.66"/>
    </edge>
    <edge id=":13_10" function="internal">
        <lane id=":13_10_0" index="0" speed="30.00" length="6.10" shape="141.65,979.72 141.10,983.86 139.95,985.41"/>
    </edge>
    <edge id=":13_11" function="internal">
        <lane id=":13_11_0" index="0" speed="30.00" length="2.41" shape="141.65,979.72 140.83,980.96 140.00,981.37"/>
    </edge>
    <edge id=":13_20" function="internal">
        <lane id=":13_20_0" index="0" speed="30.00" length="7.72" shape="139.95,985.41 139.47,986.06 136.74,986.31 132.92,984.63"/>
    </edge>
    <edge id=":13_21" function="internal">
        <lane id=":13_21_0" index="0" speed="30.00" length="2.41" shape="140.00,981.37 139.17,980.96 138.35,979.72"/>
    </edge>
    <edge id=":13_12" function="internal">
        <lane id=":13_12_0" index="0" speed="30.00" length="5.88" shape="134.64,981.81 136.26,982.53 137.42,982.42 138.12,981.48 138.35,979.72"/>
    </edge>
    <edge id=":13_13" function="internal">
        <lane id=":13_13_0" index="0" speed="30.00" length="12.36" shape="134.64,981.81 137.52,983.51 140.05,984.81 142.69,985.85 145.89,986.77"/>
    </edge>
    <edge id=":13_14" function="internal">
        <lane id=":13_14_0" index="0" speed="30.00" length="6.96" shape="134.64,981.81 137.71,984.09 139.75,986.48"/>
    </edge>
    <edge id=":13_15" function="internal">
        <lane id=":13_15_0" index="0" speed="30.00" length="2.41" shape="134.64,981.81 135.27,983.16 135.19,984.08"/>
    </edge>
    <edge id=":13_22" function="internal">
        <lane id=":13_22_0" index="0" speed="30.00" length="6.56" shape="139.75,986.48 139.90,986.65 141.21,989.51 141.65,992.66"/>
    </edge>
    <edge id=":13_23" function="internal">
        <lane id=":13_23_0" index="0" speed="30.00" length="2.41" shape="135.19,984.08 134.41,984.57 132.92,984.63"/>
    </edge>
    <edge id=":2_0" function="internal">
        <lane id=":2_0_0" index="0" speed="30.00" length="16.25" shape="1811.50,1008.65 1807.55,1008.65 1803.38,1008.65 1799.20,1008.65 1795.25,1008.65"/>
    </edge>
    <edge id=":2_1" function="internal">
        <lane id=":2_1_0" index="0" speed="25.00" length="10.21" shape="1811.50,1008.65 1805.75,1008.25 1801.64,1007.05 1801.51,1006.95"/>
    </edge>
    <edge id=":2_2" function="internal">
        <lane id=":2_2_0" index="0" speed="30.00" length="2.41" shape="1811.50,1008.65 1810.26,1007.83 1809.85,1007.00"/>
    </edge>
    <edge id=":2_9" function="internal">
        <lane id=":2_9_0" index="0" speed="25.00" length="5.93" shape="1801.51,1006.95 1799.17,1005.05 1798.35,1002.25"/>
    </edge>
    <edge id=":2_10" function="internal">
        <lane id=":2_10_0" index="0" speed="30.00" length="2.41" shape="1809.85,1007.00 1810.26,1006.18 1811.50,1005.35"/>
    </edge>
    <edge id=":2_3" function="internal">
        <lane id=":2_3_0" index="0" speed="25.00" length="11.02" shape="1801.65,1002.25 1802.27,1003.61 1804.11,1004.57 1807.19,1005.16 1811.50,1005.35"/>
    </edge>
    <edge id=":2_4" function="internal">
        <lane id=":2_4_0" index="0" speed="25.00" length="10.32" shape="1801.65,1002.25 1801.25,1005.05 1800.05,1007.05 1798.05,1008.25 1795.25,1008.65"/>
    </edge>
    <edge id=":2_5" function="internal">
        <lane id=":2_5_0" index="0" speed="20.00" length="2.69" shape="1801.65,1002.25 1800.82,1003.49 1800.00,1003.90 1799.75,1003.77"/>
    </edge>
    <edge id=":2_11" function="internal">
        <lane id=":2_11_0" index="0" speed="20.00" length="2.13" shape="1799.75,1003.77 1799.18,1003.49 1798.35,1002.25"/>
    </edge>
    <edge id=":2_6" function="internal">
        <lane id=":2_6_0" index="0" speed="25.00" length="5.00" shape="1795.25,1005.35 1796.61,1005.16 1797.57,1004.58 1798.16,1003.61 1798.35,1002.25"/>
    </edge>
    <edge id=":2_7" function="internal">
        <lane id=":2_7_0" index="0" speed="30.00" length="16.25" shape="1795.25,1005.35 1799.20,1005.35 1803.38,1005.35 1807.55,1005.35 1811.50,1005.35"/>
    </edge>
    <edge id=":2_8" function="internal">
        <lane id=":2_8_0" index="0" speed="30.00" length="2.41" shape="1795.25,1005.35 1796.49,1006.18 1796.90,1007.00"/>
    </edge>
    <edge id=":2_12" function="internal">
        <lane id=":2_12_0" index="0" speed="30.00" length="2.41" shape="1796.90,1007.00 1796.49,1007.83 1795.25,1008.65"/>
    </edge>
    <edge id=":21_0" function="internal">
        <lane id=":21_0_0" index="0" speed="30.00" length="4.82" shape="138.35,792.00 139.17,790.76 140.00,790.35 140.83,790.76 141.65,792.00"/>
    </edge>
    <edge id=":22_0" function="internal">
        <lane id=":22_0_0" index="0" speed="30.00" length="4.82" shape="-0.86,903.41 -1.49,902.06 -1.41,901.14 -0.63,900.65 0.86,900.59"/>
    </edge>
    <edge id=":3_0" function="internal">
        <lane id=":3_0_0" index="0" speed="20.00" length="4.82" shape="1798.35,852.00 1799.18,850.76 1800.00,850.35 1800.83,850.76 1801.65,852.00"/>
    </edge>
    <edge id=":31_0" function="internal">
        <lane id=":31_0_0" index="0" speed="30.00" length="16.18" shape="138.35,1116.68 138.35,1112.75 138.35,1108.59 138.35,1104.43 138.35,1100.50"/>
    </edge>
    <edge id=":31_1" function="internal">
        <lane id=":31_1_0" index="0" speed="25.00" length="5.19" shape="138.35,1116.68 138.79,1113.33 140.05,1112.03"/>
    </edge>
    <edge id=":31_2" function="internal">
        <lane id=":31_2_0" index="0" speed="30.00" length="2.41" shape="138.35,1116.68 139.17,1115.44 140.00,1115.03"/>
    </edge>
    <edge id=":31_6" function="internal">
        <lane id=":31_6_0" index="0" speed="25.00" length="6.42" shape="140.05,1112.03 140.12,1111.96 142.34,1112.55 145.44,1115.11"/>
    </edge>
    <edge id=":31_7" function="internal">
        <lane id=":31_7_0" index="0" speed="30.00" length="2.41" shape="140.00,1115.03 140.83,1115.44 141.65,1116.68"/>
    </edge>
    <edge id=":31_3" function="internal">
        <lane id=":31_3_0" index="0" speed="25.00" length="15.42" shape="141.65,1100.50 141.89,1105.47 142.60,1109.56 143.78,1112.77 145.44,1115.11"/>
    </edge>
    <edge id=":31_4" function="internal">
        <lane id=":31_4_0" index="0" speed="30.00" length="16.18" shape="141.65,1100.50 141.65,1104.43 141.65,1108.59 141.65,1112.75 141.65,1116.68"/>
    </edge>
    <edge id=":31_5" function="internal">
        <lane id=":31_5_0" index="0" speed="30.00" length="2.41" shape="141.65,1100.50 140.83,1101.74 140.00,1102.15"/>
    </edge>
    <edge id=":31_8" function="internal">
        <lane id=":31_8_0" index="0" speed="30.00" length="2.41" shape="140.00,1102.15 139.17,1101.74 138.35,1100.50"/>
    </edge>
    <edge id=":32_0" function="internal">
        <lane id=":32_0_0" index="0" speed="30.00" length="4.82" shape="141.65,1182.00 140.83,1183.24 140.00,1183.65 139.17,1183.24 138.35,1182.00"/>
    </edge>
    <edge id=":4_0" function="internal">
        <lane id=":4_0_0" index="0" speed="30.00" length="9.53" shape="1724.75,1008.65 1715.22,1008.62"/>
    </edge>
    <edge id=":4_1" function="internal">
        <lane id=":4_1_0" index="0" speed="25.00" length="5.29" shape="1724.75,1008.65 1721.95,1008.25 1719.95,1007.04 1719.88,1006.93"/>
    </edge>
    <edge id=":4_2" function="internal">
        <lane id=":4_2_0" index="0" speed="30.00" length="2.41" shape="1724.75,1008.65 1723.51,1007.83 1723.10,1007.00"/>
    </edge>
    <edge id=":4_9" function="internal">
        <lane id=":4_9_0" index="0" speed="25.00" length="5.05" shape="1719.88,1006.93 1718.75,1005.04 1718.35,1002.23"/>
    </edge>
    <edge id=":4_10" function="internal">
        <lane id=":4_10_0" index="0" speed="30.00" length="2.41" shape="1723.10,1007.00 1723.51,1006.18 1724.75,1005.35"/>
    </edge>
    <edge id=":4_3" function="internal">
        <lane id=":4_3_0" index="0" speed="25.00" length="5.02" shape="1721.65,1002.23 1721.84,1003.59 1722.43,1004.57 1723.39,1005.15 1724.75,1005.35"/>
    </edge>
    <edge id=":4_4" function="internal">
        <lane id=":4_4_0" index="0" speed="25.00" length="10.35" shape="1721.65,1002.23 1721.25,1005.04 1720.04,1007.04 1718.03,1008.24 1715.22,1008.62"/>
    </edge>
    <edge id=":4_5" function="internal">
        <lane id=":4_5_0" index="0" speed="20.00" length="2.69" shape="1721.65,1002.23 1720.82,1003.47 1720.00,1003.88 1719.75,1003.75"/>
    </edge>
    <edge id=":4_11" function="internal">
        <lane id=":4_11_0" index="0" speed="20.00" length="2.13" shape="1719.75,1003.75 1719.18,1003.47 1718.35,1002.23"/>
    </edge>
    <edge id=":4_6" function="internal">
        <lane id=":4_6_0" index="0" speed="25.00" length="5.01" shape="1715.24,1005.32 1716.60,1005.13 1717.57,1004.56 1718.16,1003.59 1718.35,1002.23"/>
    </edge>
    <edge id=":4_7" function="internal">
        <lane id=":4_7_0" index="0" speed="30.00" length="9.51" shape="1715.24,1005.32 1724.75,1005.35"/>
    </edge>
    <edge id=":4_8" function="internal">
        <lane id=":4_8_0" index="0" speed="30.00" length="2.41" shape="1715.24,1005.32 1716.47,1006.15 1716.88,1006.98"/>
    </edge>
    <edge id=":4_12" function="internal">
        <lane id=":4_12_0" index="0" speed="30.00" length="2.41" shape="1716.88,1006.98 1716.46,1007.80 1715.22,1008.62"/>
    </edge>
    <edge id=":40_0" function="internal">
        <lane id=":40_0_0" index="0" speed="30.00" length="9.63" shape="3002.32,73.57 2993.48,77.38"/>
    </edge>
    <edge id=":40_1" function="internal">
        <lane id=":40_1_0" index="0" speed="30.00" length="12.25" shape="3002.32,73.57 2999.05,73.34 2996.40,72.53 2993.82,71.32 2990.78,69.91"/>
    </edge>
    <edge id=":40_2" function="internal">
        <lane id=":40_2_0" index="0" speed="30.00" length="2.29" shape="3002.32,73.57 3001.05,72.79 3000.66,72.08"/>
    </edge>
    <edge id=":40_6" function="internal">
        <lane id=":40_6_0" index="0" speed="30.00" length="2.53" shape="3000.66,72.08 3000.61,71.98 3000.99,71.14 3002.19,70.27"/>
    </edge>
    <edge id=":40_3" function="internal">
        <lane id=":40_3_0" index="0" speed="30.00" length="6.93" shape="2991.92,74.48 2993.44,73.33 2993.76,72.19 2992.88,71.05 2990.78,69.91"/>
    </edge>
    <edge id=":40_4" function="internal">
        <lane id=":40_4_0" index="0" speed="30.00" length="11.27" shape="2991.92,74.48 2994.68,72.85 2996.83,71.55 2999.10,70.67 3002.19,70.27"/>
    </edge>
    <edge id=":40_5" function="internal">
        <lane id=":40_5_0" index="0" speed="30.00" length="2.61" shape="2991.92,74.48 2993.40,74.62 2994.15,75.15 2994.16,75.35"/>
    </edge>
    <edge id=":40_7" function="internal">
        <lane id=":40_7_0" index="0" speed="30.00" length="2.21" shape="2994.16,75.35 2994.18,76.07 2993.48,77.38"/>
    </edge>
    <edge id=":41_0" function="internal">
        <lane id=":41_0_0" index="0" speed="25.00" length="10.07" shape="3138.89,74.50 3136.64,71.96 3134.57,70.17 3132.66,69.11 3130.93,68.80"/>
    </edge>
    <edge id=":41_1" function="internal">
        <lane id=":41_1_0" index="0" speed="25.00" length="6.52" shape="3138.89,74.50 3136.42,70.50 3136.36,68.69"/>
    </edge>
    <edge id=":41_2" function="internal">
        <lane id=":41_2_0" index="0" speed="20.00" length="2.41" shape="3138.89,74.50 3138.76,73.02 3139.15,72.18"/>
    </edge>
    <edge id=":41_12" function="internal">
        <lane id=":41_12_0" index="0" speed="25.00" length="8.61" shape="3136.36,68.69 3136.32,67.64 3138.62,65.93 3143.29,65.37"/>
    </edge>
    <edge id=":41_13" function="internal">
        <lane id=":41_13_0" index="0" speed="20.00" length="2.41" shape="3139.15,72.18 3140.05,71.99 3141.47,72.44"/>
    </edge>
    <edge id=":41_3" function="internal">
        <lane id=":41_3_0" index="0" speed="25.00" length="6.24" shape="3143.28,68.67 3141.35,68.90 3140.41,69.61 3140.44,70.79 3141.47,72.44"/>
    </edge>
    <edge id=":41_4" function="internal">
        <lane id=":41_4_0" index="0" speed="30.00" length="12.36" shape="3143.28,68.67 3139.95,68.66 3137.10,68.66 3134.26,68.70 3130.93,68.80"/>
    </edge>
    <edge id=":41_5" function="internal">
        <lane id=":41_5_0" index="0" speed="30.00" length="2.41" shape="3143.28,68.67 3142.05,67.85 3141.64,67.02"/>
    </edge>
    <edge id=":41_14" function="internal">
        <lane id=":41_14_0" index="0" speed="30.00" length="2.41" shape="3141.64,67.02 3142.05,66.20 3143.29,65.37"/>
    </edge>
    <edge id=":41_6" function="internal">
        <lane id=":41_6_0" index="0" speed="35.00" length="11.79" shape="3132.44,61.66 3134.35,63.28 3136.80,64.44 3139.78,65.13 3143.29,65.37"/>
    </edge>
    <edge id=":41_7" function="internal">
        <lane id=":41_7_0" index="0" speed="30.00" length="14.06" shape="3132.44,61.66 3134.82,64.37 3137.03,66.99 3139.21,69.63 3141.47,72.44"/>
    </edge>
    <edge id=":41_8" function="internal">
        <lane id=":41_8_0" index="0" speed="35.00" length="7.58" shape="3132.44,61.66 3134.64,64.68 3135.13,66.88 3134.06,68.06"/>
    </edge>
    <edge id=":41_15" function="internal">
        <lane id=":41_15_0" index="0" speed="35.00" length="3.27" shape="3134.06,68.06 3133.89,68.25 3130.93,68.80"/>
    </edge>
    <edge id=":41_9" function="internal">
        <lane id=":41_9_0" index="0" speed="30.00" length="12.49" shape="3130.81,65.50 3134.16,65.40 3137.05,65.36 3139.93,65.36 3143.29,65.37"/>
    </edge>
    <edge id=":41_10" function="internal">
        <lane id=":41_10_0" index="0" speed="25.00" length="5.32" shape="3130.81,65.50 3133.33,65.87 3135.82,67.08"/>
    </edge>
    <edge id=":41_11" function="internal">
        <lane id=":41_11_0" index="0" speed="30.00" length="2.41" shape="3130.81,65.50 3132.07,66.28 3132.52,67.09"/>
    </edge>
    <edge id=":41_16" function="internal">
        <lane id=":41_16_0" index="0" speed="25.00" length="7.82" shape="3135.82,67.08 3135.95,67.15 3138.66,69.34 3141.47,72.44"/>
    </edge>
    <edge id=":41_17" function="internal">
        <lane id=":41_17_0" index="0" speed="30.00" length="2.41" shape="3132.52,67.09 3132.13,67.93 3130.93,68.80"/>
    </edge>
    <edge id=":42_0" function="internal">
        <lane id=":42_0_0" index="0" speed="35.00" length="5.04" shape="3483.35,72.77 3483.16,71.40 3482.57,70.42 3481.60,69.84 3480.24,69.64"/>
    </edge>
    <edge id=":42_1" function="internal">
        <lane id=":42_1_0" index="0" speed="40.00" length="9.53" shape="3483.35,72.77 3483.35,63.24"/>
    </edge>
    <edge id=":42_2" function="internal">
        <lane id=":42_2_0" index="0" speed="35.00" length="5.28" shape="3483.35,72.77 3483.75,69.96 3484.96,67.96 3485.05,67.90"/>
    </edge>
    <edge id=":42_3" function="internal">
        <lane id=":42_3_0" index="0" speed="40.00" length="2.41" shape="3483.35,72.77 3484.17,71.54 3485.00,71.12"/>
    </edge>
    <edge id=":42_16" function="internal">
        <lane id=":42_16_0" index="0" speed="35.00" length="5.07" shape="3485.05,67.90 3486.97,66.77 3489.78,66.38"/>
    </edge>
    <edge id=":42_17" function="internal">
        <lane id=":42_17_0" index="0" speed="40.00" length="2.41" shape="3485.00,71.12 3485.82,71.54 3486.65,72.77"/>
    </edge>
    <edge id=":42_4" function="internal">
        <lane id=":42_4_0" index="0" speed="35.00" length="5.01" shape="3489.76,69.68 3488.40,69.87 3487.43,70.44 3486.84,71.41 3486.65,72.77"/>
    </edge>
    <edge id=":42_5" function="internal">
        <lane id=":42_5_0" index="0" speed="30.00" length="9.53" shape="3489.76,69.68 3480.24,69.64"/>
    </edge>
    <edge id=":42_6" function="internal">
        <lane id=":42_6_0" index="0" speed="35.00" length="5.28" shape="3489.76,69.68 3486.96,69.26 3484.95,68.05 3484.90,67.96"/>
    </edge>
    <edge id=":42_7" function="internal">
        <lane id=":42_7_0" index="0" speed="30.00" length="2.41" shape="3489.76,69.68 3488.53,68.85 3488.12,68.02"/>
    </edge>
    <edge id=":42_18" function="internal">
        <lane id=":42_18_0" index="0" speed="35.00" length="5.06" shape="3484.90,67.96 3483.75,66.04 3483.35,63.24"/>
    </edge>
    <edge id=":42_19" function="internal">
        <lane id=":42_19_0" index="0" speed="30.00" length="2.41" shape="3488.12,68.02 3488.54,67.20 3489.78,66.38"/>
    </edge>
    <edge id=":42_8" function="internal">
        <lane id=":42_8_0" index="0" speed="35.00" length="5.05" shape="3486.65,63.24 3486.85,64.61 3487.43,65.59 3488.41,66.18 3489.78,66.38"/>
    </edge>
    <edge id=":42_9" function="internal">
        <lane id=":42_9_0" index="0" speed="40.00" length="9.53" shape="3486.65,63.24 3486.65,72.77"/>
    </edge>
    <edge id=":42_10" function="internal">
        <lane id=":42_10_0" index="0" speed="35.00" length="5.28" shape="3486.65,63.24 3486.25,66.05 3485.05,68.05 3484.95,68.10"/>
    </edge>
    <edge id=":42_11" function="internal">
        <lane id=":42_11_0" index="0" speed="40.00" length="2.41" shape="3486.65,63.24 3485.83,64.48 3485.00,64.89"/>
    </edge>
    <edge id=":42_20" function="internal">
        <lane id=":42_20_0" index="0" speed="35.00" length="5.06" shape="3484.95,68.10 3483.04,69.24 3480.24,69.64"/>
    </edge>
    <edge id=":42_21" function="internal">
        <lane id=":42_21_0" index="0" speed="40.00" length="2.41" shape="3485.00,64.89 3484.18,64.48 3483.35,63.24"/>
    </edge>
    <edge id=":42_12" function="internal">
        <lane id=":42_12_0" index="0" speed="35.00" length="5.00" shape="3480.25,66.34 3481.60,66.15 3482.57,65.57 3483.16,64.60 3483.35,63.24"/>
    </edge>
    <edge id=":42_13" function="internal">
        <lane id=":42_13_0" index="0" speed="30.00" length="9.54" shape="3480.25,66.34 3489.78,66.38"/>
    </edge>
    <edge id=":42_14" function="internal">
        <lane id=":42_14_0" index="0" speed="35.00" length="5.29" shape="3480.25,66.34 3483.05,66.75 3485.05,67.95 3485.11,68.06"/>
    </edge>
    <edge id=":42_15" function="internal">
        <lane id=":42_15_0" index="0" speed="30.00" length="2.41" shape="3480.25,66.34 3481.48,67.16 3481.89,67.99"/>
    </edge>
    <edge id=":42_22" function="internal">
        <lane id=":42_22_0" index="0" speed="35.00" length="5.05" shape="3485.11,68.06 3486.25,69.96 3486.65,72.77"/>
    </edge>
    <edge id=":42_23" function="internal">
        <lane id=":42_23_0" index="0" speed="30.00" length="2.41" shape="3481.89,67.99 3481.48,68.81 3480.24,69.64"/>
    </edge>
    <edge id=":43_0" function="internal">
        <lane id=":43_0_0" index="0" speed="25.00" length="5.06" shape="3768.35,74.77 3768.15,73.40 3767.57,72.42 3766.59,71.82 3765.22,71.62"/>
    </edge>
    <edge id=":43_1" function="internal">
        <lane id=":43_1_0" index="0" speed="20.00" length="9.54" shape="3768.35,74.77 3768.35,65.23"/>
    </edge>
    <edge id=":43_2" function="internal">
        <lane id=":43_2_0" index="0" speed="25.00" length="5.28" shape="3768.35,74.77 3768.75,71.96 3769.96,69.96 3770.05,69.90"/>
    </edge>
    <edge id=":43_3" function="internal">
        <lane id=":43_3_0" index="0" speed="20.00" length="2.41" shape="3768.35,74.77 3769.18,73.53 3770.00,73.12"/>
    </edge>
    <edge id=":43_16" function="internal">
        <lane id=":43_16_0" index="0" speed="25.00" length="5.07" shape="3770.05,69.90 3771.97,68.76 3774.78,68.38"/>
    </edge>
    <edge id=":43_17" function="internal">
        <lane id=":43_17_0" index="0" speed="20.00" length="2.41" shape="3770.00,73.12 3770.82,73.53 3771.65,74.77"/>
    </edge>
    <edge id=":43_4" function="internal">
        <lane id=":43_4_0" index="0" speed="25.00" length="5.01" shape="3774.76,71.68 3773.40,71.87 3772.43,72.44 3771.84,73.41 3771.65,74.77"/>
    </edge>
    <edge id=":43_5" function="internal">
        <lane id=":43_5_0" index="0" speed="30.00" length="9.54" shape="3774.76,71.68 3765.22,71.62"/>
    </edge>
    <edge id=":43_6" function="internal">
        <lane id=":43_6_0" index="0" speed="25.00" length="5.29" shape="3774.76,71.68 3771.96,71.26 3769.95,70.05 3769.89,69.95"/>
    </edge>
    <edge id=":43_7" function="internal">
        <lane id=":43_7_0" index="0" speed="30.00" length="2.41" shape="3774.76,71.68 3773.53,70.85 3773.12,70.02"/>
    </edge>
    <edge id=":43_18" function="internal">
        <lane id=":43_18_0" index="0" speed="25.00" length="5.06" shape="3769.89,69.95 3768.75,68.04 3768.35,65.23"/>
    </edge>
    <edge id=":43_19" function="internal">
        <lane id=":43_19_0" index="0" speed="30.00" length="2.41" shape="3773.12,70.02 3773.54,69.20 3774.78,68.38"/>
    </edge>
    <edge id=":43_8" function="internal">
        <lane id=":43_8_0" index="0" speed="25.00" length="5.06" shape="3771.65,65.23 3771.85,66.60 3772.43,67.58 3773.41,68.18 3774.78,68.38"/>
    </edge>
    <edge id=":43_9" function="internal">
        <lane id=":43_9_0" index="0" speed="20.00" length="9.54" shape="3771.65,65.23 3771.65,74.77"/>
    </edge>
    <edge id=":43_10" function="internal">
        <lane id=":43_10_0" index="0" speed="25.00" length="5.28" shape="3771.65,65.23 3771.25,68.04 3770.04,70.04 3769.95,70.10"/>
    </edge>
    <edge id=":43_11" function="internal">
        <lane id=":43_11_0" index="0" speed="20.00" length="2.41" shape="3771.65,65.23 3770.82,66.46 3770.00,66.88"/>
    </edge>
    <edge id=":43_20" function="internal">
        <lane id=":43_20_0" index="0" speed="25.00" length="5.07" shape="3769.95,70.10 3768.03,71.23 3765.22,71.62"/>
    </edge>
    <edge id=":43_21" function="internal">
        <lane id=":43_21_0" index="0" speed="20.00" length="2.41" shape="3770.00,66.88 3769.18,66.46 3768.35,65.23"/>
    </edge>
    <edge id=":43_12" function="internal">
        <lane id=":43_12_0" index="0" speed="25.00" length="5.01" shape="3765.24,68.32 3766.60,68.13 3767.57,67.56 3768.16,66.59 3768.35,65.23"/>
    </edge>
    <edge id=":43_13" function="internal">
        <lane id=":43_13_0" index="0" speed="30.00" length="9.54" shape="3765.24,68.32 3774.78,68.38"/>
    </edge>
    <edge id=":43_14" function="internal">
        <lane id=":43_14_0" index="0" speed="25.00" length="5.29" shape="3765.24,68.32 3768.04,68.74 3770.05,69.95 3770.10,70.05"/>
    </edge>
    <edge id=":43_15" function="internal">
        <lane id=":43_15_0" index="0" speed="30.00" length="2.41" shape="3765.24,68.32 3766.47,69.15 3766.88,69.98"/>
    </edge>
    <edge id=":43_22" function="internal">
        <lane id=":43_22_0" index="0" speed="25.00" length="5.07" shape="3770.10,70.05 3771.25,71.96 3771.65,74.77"/>
    </edge>