<?xml version="1.0" encoding="UTF-8"?>

<!-- generated on Tue Nov  8 14:41:52 2016 by SUMO netconvert Version 0.27.1
<?xml version="1.0" encoding="UTF-8"?>

<configuration xmlns:xsi="http://www.w3.org/2001/XMLSchema-instance" xsi:noNamespaceSchemaLocation="http://sumo.dlr.de/xsd/netconvertConfiguration.xsd">

    <input>
        <sumo-net-file value="moco.net.xml"/>
    </input>

    <output>
        <plain-output-prefix value="moco"/>
    </output>

    <processing>
        <no-turnarounds value="true"/>
        <offset.disable-normalization value="true"/>
        <lefthand value="false"/>
        <junctions.corner-detail value="0"/>
    </processing>
</configuration>
-->

<edges version="0.27" xmlns:xsi="http://www.w3.org/2001/XMLSchema-instance" xsi:noNamespaceSchemaLocation="http://sumo.dlr.de/xsd/edges_file.xsd">
    <edge id="--4311" from="49328755" to="49328742" priority="4" type="highway.residential" numLanes="1" speed="13.89" disallow="tram rail_urban rail rail_electric ship"/>
    <edge id="-142530979" from="49228579" to="1559811825" priority="8" numLanes="2" speed="22.22" shape="2753.50,302.61 2762.33,311.19 2769.49,351.11 2791.62,374.14 2820.91,377.19 2865.08,341.36" disallow="tram rail_urban rail rail_electric ship"/>
    <edge id="-142865467" from="316106332" to="316106197" priority="2" type="highway.service" numLanes="1" speed="5.56" allow="delivery bicycle pedestrian"/>
    <edge id="-142865480" from="316106197" to="1563323934" priority="2" type="highway.service" numLanes="1" speed="5.56" allow="delivery bicycle pedestrian"/>
    <edge id="-143009954" from="49228579" to="1564814058" priority="5" numLanes="2" speed="13.89" disallow="tram rail_urban rail rail_electric ship"/>
    <edge id="-143329356#0" from="316106332" to="1563323934" priority="2" type="highway.service" numLanes="1" speed="5.56" allow="delivery bicycle pedestrian"/>
    <edge id="-143329356#1" from="316106287" to="316106332" priority="2" type="highway.service" numLanes="1" speed="5.56" allow="delivery bicycle pedestrian"/>
    <edge id="-143329370" from="316105782" to="1563323934" priority="2" type="highway.service" numLanes="1" speed="5.56" allow="delivery bicycle pedestrian"/>
    <edge id="-143329373" from="316105782" to="316106197" priority="2" type="highway.service" numLanes="1" speed="5.56" allow="delivery bicycle pedestrian"/>
    <edge id="-143655135#0" from="1572123659" to="1572123842" priority="2" type="highway.service" numLanes="1" speed="5.56" allow="delivery bicycle pedestrian"/>
    <edge id="-143655135#1" from="1572123653" to="1572123659" priority="2" type="highway.service" numLanes="1" speed="5.56" allow="delivery bicycle pedestrian"/>
    <edge id="-143655141" from="1572123805" to="1572123728" priority="2" type="highway.service" numLanes="1" speed="5.56" allow="delivery bicycle pedestrian"/>
    <edge id="-143655142" from="1572123432" to="1572123659" priority="2" type="highway.service" numLanes="1" speed="5.56" allow="delivery bicycle pedestrian"/>
    <edge id="-143655835#0" from="1572144651" to="1572144743" priority="2" type="highway.service" numLanes="1" speed="5.56" allow="delivery bicycle pedestrian"/>
    <edge id="-143655835#1" from="1572144677" to="1572144651" priority="2" type="highway.service" numLanes="1" speed="5.56" allow="delivery bicycle pedestrian"/>
    <edge id="-143655838" from="1572144752" to="1572144651" priority="2" type="highway.service" numLanes="2" speed="5.56" shape="1124.84,484.21 1171.79,444.93 1225.02,430.28" allow="delivery bicycle pedestrian"/>
    <edge id="-143655853" from="49167776" to="1572144752" priority="2" type="highway.service" numLanes="1" speed="5.56" allow="delivery bicycle pedestrian"/>
    <edge id="-231975294" from="2402962039" to="2402962022" priority="2" type="highway.service" numLanes="1" speed="5.56" allow="delivery bicycle pedestrian"/>
    <edge id="-244626184#0" from="3910053197" to="3910053195" priority="6" type="highway.tertiary" numLanes="1" speed="22.22" disallow="tram rail_urban rail rail_electric ship"/>
    <edge id="-244626184#1" from="49312464" to="3910053197" priority="6" type="highway.tertiary" numLanes="1" speed="22.22" disallow="tram rail_urban rail rail_electric ship"/>
    <edge id="-244626184#2" from="49364844" to="49312464" priority="6" numLanes="2" speed="22.22" disallow="tram rail_urban rail rail_electric ship"/>
    <edge id="-28749853" from="316103469" to="49267040" priority="4" type="highway.residential" numLanes="1" speed="13.89" disallow="tram rail_urban rail rail_electric ship"/>
    <edge id="-28749905" from="316104028" to="316103509" priority="4" type="highway.residential" numLanes="1" speed="13.89" disallow="tram rail_urban rail rail_electric ship"/>
    <edge id="-312092835" from="2344462662" to="3910053197" priority="2" type="highway.service" numLanes="1" speed="5.56" allow="delivery bicycle pedestrian"/>
    <edge id="-4311" from="49328742" to="49328755" priority="4" type="highway.residential" numLanes="1" speed="13.89" disallow="tram rail_urban rail rail_electric ship"/>
    <edge id="-50846713#1" from="1559811806" to="cluster_648538736_648538737" priority="9" type="highway.primary" numLanes="3" speed="27.78" shape="2749.64,286.07 2727.59,186.90" disallow="tram rail_urban rail rail_electric ship"/>
    <edge id="-50846713#2" from="49228579" to="1559811806" priority="9" type="highway.primary" numLanes="2" speed="27.78" disallow="tram rail_urban rail rail_electric ship"/>
    <edge id="-50846720#0" from="1559811808" to="49228579" priority="6" type="highway.tertiary" numLanes="1" speed="22.22" length="30.00" disallow="tram rail_urban rail rail_electric ship"/>
    <edge id="-50846720#1" from="49297284" to="-50846720#1.35" priority="6" numLanes="2" speed="22.22" shape="2610.22,295.47 2637.98,296.85 2645.18,297.21" disallow="tram rail_urban rail rail_electric ship"/>
    <edge id="-50846720#1.35" from="-50846720#1.35" to="1559811808" priority="6" numLanes="3" speed="22.22" disallow="tram rail_urban rail rail_electric ship"/>
    <edge id="-50846720#10" from="49297293" to="49133276" priority="6" type="highway.tertiary" numLanes="2" speed="22.22" disallow="tram rail_urban rail rail_electric ship"/>
    <edge id="-50846720#11" from="49274762" to="49297293" priority="6" type="highway.tertiary" numLanes="2" speed="22.22" disallow="tram rail_urban rail rail_electric ship"/>
    <edge id="-50846720#12" from="648538771" to="49274762" priority="6" type="highway.tertiary" numLanes="2" speed="22.22" disallow="tram rail_urban rail rail_electric ship"/>
    <edge id="-50846720#2" from="2402962022" to="49297284" priority="6" numLanes="2" speed="22.22" shape="2383.96,277.17 2474.77,281.86 2610.56,288.88" disallow="tram rail_urban rail rail_electric ship"/>
    <edge id="-50846720#3" from="49261925" to="2402962022" priority="6" numLanes="2" speed="22.22" shape="2300.59,272.87 2383.96,277.17" disallow="tram rail_urban rail rail_electric ship"/>
    <edge id="-50846720#4" from="cluster_2511020106_49297289" to="49261925" priority="6" numLanes="2" speed="22.22" shape="2081.28,273.15 2300.24,272.86" disallow="tram rail_urban rail rail_electric ship"/>
    <edge id="-50846720#6" from="316103509" to="-50846720#6.20" priority="6" numLanes="2" speed="22.22" shape="1848.90,306.77 1868.67,303.79" disallow="tram rail_urban rail rail_electric ship"/>
    <edge id="-50846720#6.20" from="-50846720#6.20" to="cluster_2511020106_49297289" priority="6" numLanes="5" speed="22.22" shape="1869.66,310.32 2068.34,280.36" disallow="tram rail_urban rail rail_electric ship"/>
    <edge id="-50846720#7" from="49156423" to="316103509" priority="6" type="highway.tertiary" numLanes="2" speed="22.22" disallow="tram rail_urban rail rail_electric ship"/>
    <edge id="-50846720#8" from="49267040" to="49156423" priority="6" type="highway.tertiary" numLanes="2" speed="22.22" disallow="tram rail_urban rail rail_electric ship"/>
    <edge id="-50846720#9" from="49133276" to="49267040" priority="6" type="highway.tertiary" numLanes="2" speed="22.22" disallow="tram rail_urban rail rail_electric ship"/>
    <edge id="-50846762" from="648538923" to="648538922" priority="5" type="highway.unclassified" numLanes="1" speed="13.89" disallow="tram rail_urban rail rail_electric ship"/>
    <edge id="-50846765" from="49297296" to="648538771" priority="6" type="highway.tertiary" numLanes="2" speed="22.22" disallow="tram rail_urban rail rail_electric ship"/>
    <edge id="-50846769" from="cluster_290051912_298136030_648538909" to="-50846769.75" priority="6" numLanes="3" speed="22.22" shape="1223.58,360.94 1291.92,391.83" disallow="tram rail_urban rail rail_electric ship"/>
    <edge id="-50846769.75" from="-50846769.75" to="49297296" priority="6" numLanes="2" speed="22.22" disallow="tram rail_urban rail rail_electric ship"/>
    <edge id="-50846782#0" from="648538994" to="648538996" priority="5" type="highway.unclassified" numLanes="1" speed="13.89" disallow="tram rail_urban rail rail_electric ship"/>
    <edge id="-50846782#1" from="648538922" to="648538994" priority="5" type="highway.unclassified" numLanes="1" speed="13.89" disallow="tram rail_urban rail rail_electric ship"/>
    <edge id="-50846782#2" from="cluster_290051904_49145925" to="648538922" priority="5" type="highway.unclassified" numLanes="1" speed="13.89" shape="605.15,491.11 593.13,479.07 561.46,472.32 532.07,477.69" disallow="tram rail_urban rail rail_electric ship"/>
    <edge id="-5964233" from="49133277" to="49133276" priority="4" type="highway.residential" numLanes="1" speed="13.89" disallow="tram rail_urban rail rail_electric ship"/>
    <edge id="-5965599#0" from="cluster_296990787_49145247" to="1688843667" priority="2" type="highway.service" numLanes="2" speed="5.56" shape="2988.59,99.49 2914.92,73.33" allow="delivery bicycle pedestrian"/>
    <edge id="-5965712" from="cluster_290051904_49145925" to="49145923" priority="4" type="highway.residential" numLanes="1" speed="13.89" shape="607.77,510.78 609.80,571.25" disallow="tram rail_urban rail rail_electric ship"/>
    <edge id="-5967019" from="49156423" to="49156421" priority="4" type="highway.residential" numLanes="1" speed="13.89" disallow="tram rail_urban rail rail_electric ship"/>
    <edge id="-5967393" from="49160364" to="49156808" priority="4" type="highway.residential" numLanes="1" speed="13.89" disallow="tram rail_urban rail rail_electric ship"/>
    <edge id="-5967694" from="49162949" to="49162947" priority="4" type="highway.residential" numLanes="1" speed="13.89" disallow="tram rail_urban rail rail_electric ship"/>
    <edge id="-5968215#0" from="cluster_298135838_49135231" to="49167790" priority="4" type="highway.residential" numLanes="1" speed="13.89" shape="1038.66,436.65 1037.65,433.21 827.27,71.21" disallow="tram rail_urban rail rail_electric ship"/>
    <edge id="-5968215#2" from="49167776" to="cluster_298135838_49135231" priority="4" numLanes="2" speed="13.89" shape="1076.20,514.51 1043.18,448.59" disallow="tram rail_urban rail rail_electric ship"/>
    <edge id="-5968215#3" from="49167777" to="49167776" priority="4" type="highway.residential" numLanes="1" speed="13.89" disallow="tram rail_urban rail rail_electric ship"/>
    <edge id="-5968278" from="49133277" to="316103419" priority="4" type="highway.residential" numLanes="1" speed="13.89" disallow="tram rail_urban rail rail_electric ship"/>
    <edge id="-5971039#0" from="49167790" to="49197849" priority="4" type="highway.residential" numLanes="1" speed="13.89" disallow="tram rail_urban rail rail_electric ship"/>
    <edge id="-5971039#1" from="49197855" to="49167790" priority="4" type="highway.residential" numLanes="1" speed="13.89" disallow="tram rail_urban rail rail_electric ship"/>
    <edge id="-5971039#2" from="49197856" to="49197855" priority="4" type="highway.residential" numLanes="1" speed="13.89" disallow="tram rail_urban rail rail_electric ship"/>
    <edge id="-5971039#3" from="49197869" to="49197856" priority="4" type="highway.residential" numLanes="1" speed="13.89" disallow="tram rail_urban rail rail_electric ship"/>
    <edge id="-5972211#0" from="49210375" to="49210374" priority="4" type="highway.residential" numLanes="1" speed="13.89" disallow="tram rail_urban rail rail_electric ship"/>
    <edge id="-5972211#1" from="49210383" to="49210375" priority="4" type="highway.residential" numLanes="1" speed="13.89" shape="552.44,573.05 499.12,581.41 469.28,617.83 462.97,645.45 440.57,760.36" disallow="tram rail_urban rail rail_electric ship"/>
    <edge id="-5972214#0" from="49145923" to="49210383" priority="4" type="highway.residential" numLanes="1" speed="13.89" disallow="tram rail_urban rail rail_electric ship"/>
    <edge id="-5972214#1" from="49210387" to="49145923" priority="4" type="highway.residential" numLanes="1" speed="13.89" disallow="tram rail_urban rail rail_electric ship"/>
    <edge id="-5972515" from="49210375" to="49156814" priority="4" type="highway.residential" numLanes="1" speed="13.89" disallow="tram rail_urban rail rail_electric ship"/>
    <edge id="-5972921" from="49216755" to="49197855" priority="4" type="highway.residential" numLanes="1" speed="13.89" disallow="tram rail_urban rail rail_electric ship"/>
    <edge id="-5973964" from="599157028" to="49226849" priority="4" type="highway.residential" numLanes="1" speed="13.89" disallow="tram rail_urban rail rail_electric ship"/>
    <edge id="-5974128" from="cluster_648538736_648538737" to="2955719470" priority="4" type="highway.residential" numLanes="1" speed="13.89" shape="2723.62,170.97 2695.26,13.73" disallow="tram rail_urban rail rail_electric ship"/>
    <edge id="-5976247" from="49210383" to="49247374" priority="4" type="highway.residential" numLanes="1" speed="13.89" disallow="tram rail_urban rail rail_electric ship"/>
    <edge id="-5976858#0" from="49251763" to="49251760" priority="4" type="highway.residential" numLanes="1" speed="13.89" disallow="tram rail_urban rail rail_electric ship"/>
    <edge id="-5976858#1" from="49133276" to="49251763" priority="4" type="highway.residential" numLanes="1" speed="13.89" disallow="tram rail_urban rail rail_electric ship"/>
    <edge id="-5977975" from="49261925" to="49261923" priority="4" type="highway.residential" numLanes="1" speed="13.89" disallow="tram rail_urban rail rail_electric ship"/>
    <edge id="-5978540" from="49267041" to="49267040" priority="4" type="highway.residential" numLanes="1" speed="13.89" disallow="tram rail_urban rail rail_electric ship"/>
    <edge id="-5978993" from="49271377" to="49271376" priority="4" type="highway.residential" numLanes="1" speed="13.89" disallow="tram rail_urban rail rail_electric ship"/>
    <edge id="-5979291#0" from="49274745" to="49274743" priority="4" type="highway.residential" numLanes="1" speed="13.89" disallow="tram rail_urban rail rail_electric ship"/>
    <edge id="-5979291#1" from="49274762" to="49274745" priority="4" type="highway.residential" numLanes="1" speed="13.89" disallow="tram rail_urban rail rail_electric ship"/>
    <edge id="-5984107" from="49312464" to="49146274" priority="4" type="highway.residential" numLanes="1" speed="13.89" disallow="tram rail_urban rail rail_electric ship"/>
    <edge id="-5986184" from="49328729" to="49197856" priority="4" type="highway.residential" numLanes="1" speed="13.89" disallow="tram rail_urban rail rail_electric ship"/>
    <edge id="-5986247#0" from="49197869" to="49329896" priority="4" type="highway.residential" numLanes="1" speed="13.89" disallow="tram rail_urban rail rail_electric ship"/>
    <edge id="-5986247#1" from="49328755" to="49197869" priority="4" type="highway.residential" numLanes="1" speed="13.89" disallow="tram rail_urban rail rail_electric ship"/>
    <edge id="-5986247#2" from="648538994" to="49328755" priority="4" type="highway.residential" numLanes="1" speed="13.89" disallow="tram rail_urban rail rail_electric ship"/>
    <edge id="-5986306" from="49251763" to="49330838" priority="4" type="highway.residential" numLanes="1" speed="13.89" disallow="tram rail_urban rail rail_electric ship"/>
    <edge id="-5987392" from="49340711" to="49156806" priority="4" type="highway.residential" numLanes="1" speed="13.89" disallow="tram rail_urban rail rail_electric ship"/>
    <edge id="-5987516" from="49341928" to="49297293" priority="4" type="highway.residential" numLanes="1" speed="13.89" disallow="tram rail_urban rail rail_electric ship"/>
    <edge id="-5988429#0" from="49226849" to="49297284" priority="4" type="highway.residential" numLanes="1" speed="13.89" disallow="tram rail_urban rail rail_electric ship"/>
    <edge id="-5988429#1" from="1572123653" to="49226849" priority="4" type="highway.residential" numLanes="1" speed="13.89" shape="2704.76,520.76 2624.10,512.10 2607.33,503.68 2601.32,481.17" disallow="tram rail_urban rail rail_electric ship"/>
    <edge id="-5988429#2" from="1572123805" to="1572123653" priority="4" type="highway.residential" numLanes="1" speed="13.89" disallow="tram rail_urban rail rail_electric ship"/>
    <edge id="-5988429#3" from="cluster_296990956_49291711" to="1572123805" priority="4" type="highway.residential" numLanes="1" speed="13.89" shape="2758.67,526.54 2727.22,523.16" disallow="tram rail_urban rail rail_electric ship"/>
    <edge id="-5991176" from="49274745" to="49251760" priority="4" type="highway.residential" numLanes="1" speed="13.89" disallow="tram rail_urban rail rail_electric ship"/>
    <edge id="-5991368#0" from="2511020105" to="1568545296" priority="4" type="highway.residential" numLanes="1" speed="13.89" disallow="tram rail_urban rail rail_electric ship"/>
    <edge id="-5991368#1" from="49374717" to="2511020105" priority="4" type="highway.residential" numLanes="1" speed="13.89" disallow="tram rail_urban rail rail_electric ship"/>
    <edge id="-5991368#2" from="49374719" to="49374717" priority="4" type="highway.residential" numLanes="1" speed="13.89" disallow="tram rail_urban rail rail_electric ship"/>
    <edge id="-5991369#0" from="49271376" to="49374717" priority="4" type="highway.residential" numLanes="1" speed="13.89" disallow="tram rail_urban rail rail_electric ship"/>
    <edge id="-5991369#1" from="49162947" to="49271376" priority="4" type="highway.residential" numLanes="1" speed="13.89" disallow="tram rail_urban rail rail_electric ship"/>
    <edge id="-5991369#2" from="49261923" to="49162947" priority="4" type="highway.residential" numLanes="1" speed="13.89" disallow="tram rail_urban rail rail_electric ship"/>
    <edge id="-5991369#3" from="49264513" to="49261923" priority="4" type="highway.residential" numLanes="1" speed="13.89" disallow="tram rail_urban rail rail_electric ship"/>
    <edge id="-76697577" from="903682800" to="49271993" priority="6" type="highway.tertiary" numLanes="1" speed="15.65" disallow="tram rail_urban rail rail_electric ship"/>
    <edge id="-76697654#0" from="49156806" to="648539751" priority="4" type="highway.residential" numLanes="1" speed="13.89" disallow="tram rail_urban rail rail_electric ship"/>
    <edge id="-76697654#1" from="49156808" to="49156806" priority="4" type="highway.residential" numLanes="1" speed="13.89" disallow="tram rail_urban rail rail_electric ship"/>
    <edge id="-76697654#2" from="49156814" to="49156808" priority="4" type="highway.residential" numLanes="1" speed="13.89" disallow="tram rail_urban rail rail_electric ship"/>
    <edge id="-76697654#3" from="49156823" to="49156814" priority="4" type="highway.residential" numLanes="1" speed="13.89" disallow="tram rail_urban rail rail_electric ship"/>
    <edge id="-89534885" from="49286890" to="49305334" priority="7" type="highway.secondary" numLanes="2" speed="27.78" disallow="tram rail_urban rail rail_electric ship"/>
    <edge id="114850054#1" from="cluster_1934205762_648539498_648539739_903682944" to="290051898" priority="11" type="highway.trunk" numLanes="2" speed="27.78" shape="74.33,639.56 192.64,610.56" spreadType="center" disallow="tram rail_urban rail rail_electric bicycle pedestrian ship"/>
    <edge id="114850085#0" from="cluster_1934205762_648539498_648539739_903682944" to="903682995" priority="11" type="highway.trunk" numLanes="3" speed="27.78" shape="67.98,655.03 35.93,662.43" spreadType="center" disallow="tram rail_urban rail rail_electric bicycle pedestrian ship"/>
    <edge id="114850085#1" from="903682995" to="49133969" priority="11" type="highway.trunk" numLanes="3" speed="27.78" spreadType="center" disallow="tram rail_urban rail rail_electric bicycle pedestrian ship"/>
    <edge id="116069075#0" from="290051898" to="116069075#0.376" priority="11" numLanes="3" speed="27.78" shape="192.22,608.91 278.62,586.90 553.39,504.80" spreadType="center" disallow="tram rail_urban rail rail_electric bicycle pedestrian ship"/>
    <edge id="116069075#0.376" from="116069075#0.376" to="cluster_290051904_49145925" priority="11" numLanes="4" speed="27.78" shape="553.87,506.43 605.15,491.11" spreadType="center" disallow="tram rail_urban rail rail_electric bicycle pedestrian ship"/>
    <edge id="116069075#1" from="cluster_290051904_49145925" to="116069075#1.264" priority="11" numLanes="3" speed="27.78" shape="605.15,491.11 777.94,483.13 868.36,472.61" spreadType="center" disallow="tram rail_urban rail rail_electric bicycle pedestrian ship"/>
    <edge id="116069075#1.264" from="116069075#1.264" to="116069075#1.338" priority="11" numLanes="4" speed="27.78" shape="868.16,470.92 908.09,466.27 940.76,458.43" spreadType="center" disallow="tram rail_urban rail rail_electric bicycle pedestrian ship"/>
    <edge id="116069075#1.338" from="116069075#1.338" to="cluster_298135838_49135231" priority="11" numLanes="5" speed="27.78" shape="941.15,460.08 1038.66,436.65" spreadType="center" disallow="tram rail_urban rail rail_electric bicycle pedestrian ship"/>
    <edge id="116069186#1" from="cluster_290051912_298136030_648538909" to="116069186#1.112" priority="11" numLanes="3" speed="27.78" shape="1200.49,381.18 1097.54,425.29" spreadType="center" disallow="tram rail_urban rail rail_electric bicycle pedestrian ship"/>
    <edge id="116069186#1.112" from="116069186#1.112" to="116069186#1.128" priority="11" numLanes="4" speed="27.78" shape="1098.21,426.86 1083.51,433.16" spreadType="center" disallow="tram rail_urban rail rail_electric bicycle pedestrian ship"/>
    <edge id="116069186#1.128" from="116069186#1.128" to="cluster_298135838_49135231" priority="11" numLanes="5" speed="27.78" shape="1082.84,431.60 1043.18,448.59" spreadType="center" disallow="tram rail_urban rail rail_electric bicycle pedestrian ship"/>
    <edge id="116069261" from="cluster_290051912_298136030_648538909" to="290051915" priority="11" type="highway.trunk" numLanes="2" speed="27.78" shape="1183.58,368.68 1305.99,211.40" spreadType="center" disallow="tram rail_urban rail rail_electric bicycle pedestrian ship"/>
    <edge id="142530980" from="1559811808" to="1559811806" priority="8" numLanes="2" speed="22.22" shape="2666.78,298.29 2698.49,296.43 2720.85,293.07 2749.64,286.07" spreadType="center" disallow="tram rail_urban rail rail_electric ship"/>
    <edge id="142865480" from="1563323934" to="316106197" priority="2" type="highway.service" numLanes="1" speed="5.56" allow="delivery bicycle pedestrian"/>
    <edge id="143009954" from="1564814058" to="49228579" priority="5" numLanes="2" speed="13.89" disallow="tram rail_urban rail rail_electric ship"/>
    <edge id="143329356#0" from="1563323934" to="316106332" priority="2" type="highway.service" numLanes="1" speed="5.56" allow="delivery bicycle pedestrian"/>
    <edge id="143329356#1" from="316106332" to="316106287" priority="2" type="highway.service" numLanes="1" speed="5.56" allow="delivery bicycle pedestrian"/>
    <edge id="143329372" from="316106197" to="49286890" priority="2" type="highway.service" numLanes="2" speed="5.56" shape="3126.64,421.53 3135.16,402.16 3159.83,337.15 3161.59,331.99 3162.94,317.82" spreadType="center" allow="delivery bicycle pedestrian"/>
    <edge id="143329374" from="49286890" to="316105782" priority="2" type="highway.service" numLanes="1" speed="5.56" shape="3167.71,318.89 3166.17,380.66" spreadType="center" allow="delivery bicycle pedestrian"/>
    <edge id="143655135#0" from="1572123842" to="1572123659" priority="2" type="highway.service" numLanes="1" speed="5.56" allow="delivery bicycle pedestrian"/>
    <edge id="143655135#1" from="1572123659" to="1572123653" priority="2" type="highway.service" numLanes="1" speed="5.56" allow="delivery bicycle pedestrian"/>
    <edge id="143655141" from="1572123728" to="1572123805" priority="2" type="highway.service" numLanes="1" speed="5.56" allow="delivery bicycle pedestrian"/>
    <edge id="143655142" from="1572123659" to="1572123432" priority="2" type="highway.service" numLanes="1" speed="5.56" allow="delivery bicycle pedestrian"/>
    <edge id="143655835#0" from="1572144743" to="1572144651" priority="2" type="highway.service" numLanes="1" speed="5.56" allow="delivery bicycle pedestrian"/>
    <edge id="143655835#1" from="1572144651" to="1572144677" priority="2" type="highway.service" numLanes="1" speed="5.56" allow="delivery bicycle pedestrian"/>
    <edge id="143655840#0" from="49297296" to="1572144743" priority="6" type="highway.tertiary" numLanes="1" speed="22.22" spreadType="center" disallow="tram rail_urban rail rail_electric ship"/>
    <edge id="143655840#1" from="1572144743" to="cluster_290051912_298136030_648538909" priority="6" type="highway.tertiary" numLanes="1" speed="22.22" shape="1282.97,402.31 1200.49,381.18" spreadType="center" disallow="tram rail_urban rail rail_electric ship"/>
    <edge id="143655852" from="1572144677" to="1572144752" priority="2" type="highway.service" numLanes="1" speed="5.56" spreadType="center" allow="delivery bicycle pedestrian"/>
    <edge id="143655853" from="1572144752" to="49167776" priority="2" type="highway.service" numLanes="1" speed="5.56" allow="delivery bicycle pedestrian"/>
    <edge id="231975294" from="2402962022" to="2402962039" priority="2" type="highway.service" numLanes="1" speed="5.56" allow="delivery bicycle pedestrian"/>
    <edge id="243728741#0" from="2511020101" to="cluster_2511020102_2511020103_290051922_298135886" priority="6" type="highway.tertiary" numLanes="4" speed="22.22" shape="2079.06,-45.13 2075.69,67.57" spreadType="center" disallow="tram rail_urban rail rail_electric ship"/>
    <edge id="243728741#2" from="cluster_2511020102_2511020103_290051922_298135886" to="2511020105" priority="6" numLanes="2" speed="22.22" shape="2075.98,83.19 2073.49,153.31" spreadType="center" disallow="tram rail_urban rail rail_electric ship"/>
    <edge id="243728741#3" from="2511020105" to="243728741#3.83" priority="6" numLanes="2" speed="22.22" shape="2075.19,153.21 2080.30,236.05" spreadType="center" disallow="tram rail_urban rail rail_electric ship"/>
    <edge id="243728741#3.83" from="243728741#3.83" to="cluster_2511020106_49297289" priority="6" numLanes="3" speed="22.22" shape="2078.60,236.15 2081.29,279.75" spreadType="center" disallow="tram rail_urban rail rail_electric ship"/>
    <edge id="243728741#4" from="cluster_2511020106_49297289" to="49364844" priority="6" numLanes="2" speed="22.22" shape="2081.29,279.75 2087.19,417.85 2082.63,446.49" spreadType="center" disallow="tram rail_urban rail rail_electric ship"/>
    <edge id="243728742#0" from="49364844" to="243728742#0.25" priority="6" numLanes="3" speed="22.22" shape="2074.35,448.42 2068.66,424.08" spreadType="center" disallow="tram rail_urban rail rail_electric ship"/>
    <edge id="243728742#0.25" from="243728742#0.25" to="243728742#0.50" priority="6" numLanes="4" speed="22.22" shape="2067.01,424.47 2065.79,419.27 2064.61,397.86" spreadType="center" disallow="tram rail_urban rail rail_electric ship"/>
    <edge id="243728742#0.50" from="243728742#0.50" to="cluster_2511020106_49297289" priority="6" numLanes="5" speed="22.22" shape="2066.31,397.76 2059.85,280.83" spreadType="center" disallow="tram rail_urban rail rail_electric ship"/>
    <edge id="243728742#1" from="cluster_2511020106_49297289" to="1568545296" priority="6" numLanes="2" speed="22.22" shape="2058.15,280.80 2058.91,264.18 2044.96,162.29 2048.70,152.43" spreadType="center" disallow="tram rail_urban rail rail_electric ship"/>
    <edge id="243728742#2.0" from="1568545296" to="gneJ24" priority="6" type="highway.tertiary" numLanes="2" speed="22.22" shape="2058.89,151.99 2062.67,144.15 2061.47,106.23" spreadType="center" disallow="tram rail_urban rail rail_electric ship"/>
    <edge id="243728742#2.47" from="gneJ24" to="cluster_2511020102_2511020103_290051922_298135886" priority="6" type="highway.tertiary" numLanes="2" speed="22.22" shape="2061.47,106.23 2060.94,83.38" spreadType="center" disallow="tram rail_urban rail rail_electric ship"/>
    <edge id="243728742#4" from="cluster_2511020102_2511020103_290051922_298135886" to="49364858" priority="6" type="highway.tertiary" numLanes="2" speed="22.22" shape="2060.17,67.96 2050.82,-44.65" spreadType="center" disallow="tram rail_urban rail rail_electric ship"/>
    <edge id="244626184#0" from="3910053195" to="3910053197" priority="6" type="highway.tertiary" numLanes="1" speed="22.22" disallow="tram rail_urban rail rail_electric ship"/>
    <edge id="244626184#1" from="3910053197" to="49312464" priority="6" type="highway.tertiary" numLanes="1" speed="22.22" disallow="tram rail_urban rail rail_electric ship"/>
    <edge id="244626184#2" from="49312464" to="49364844" priority="6" numLanes="2" speed="22.22" disallow="tram rail_urban rail rail_electric ship"/>
    <edge id="244626192#0" from="792739634" to="cluster_296990787_49145247" priority="9" type="highway.primary" numLanes="3" speed="27.78" shape="3054.79,2.23 3003.79,106.93" spreadType="center" disallow="tram rail_urban rail rail_electric ship"/>