<flows>
	<flow id="0" from="116069075#0"  begin="0" end="3600" number="1947"/>
	<flow id="1" from="5965712"  begin="0" end="3600" number="46"/>
	<flow id="2" from="50846782#2"  begin="0" end="3600" number="110"/>
	<flow id="3" from="5968215#0"  begin="0" end="3600" number="106"/>
	<flow id="4" from="-5968215#2"  begin="0" end="3600" number="43"/>
	<flow id="5" from="243728741#0"  begin="0" end="3600" number="265"/>
	<flow id="6" from="244626184#2"  begin="0" end="3600" number="437"/>
	<flow id="7" from="5974128"  begin="0" end="3600" number="120"/>
	<flow id="8" from="50846710#1.45"  begin="0" end="3600" number="120"/>
	<flow id="9" from="gneE17.147"  begin="0" end="3600" number="450"/>
	<flow id="10" from="143009954"  begin="0" end="3600" number="450"/>
</flows>
