<additional>
    <connection from="-142530979" to="244626213#3" fromLane="0" toLane="0" via=":1559811825_0_0" dir="s" state="m"/>
    <connection from="-142865467" to="143329372" fromLane="0" toLane="0" via=":316106197_4_0" dir="r" state="="/>
    <connection from="-142865467" to="-142865480" fromLane="0" toLane="0" via=":316106197_5_0" dir="l" state="="/>
    <connection from="-142865480" to="143329356#0" fromLane="0" toLane="0" via=":1563323934_2_0" dir="l" state="="/>
    <connection from="-142865480" to="142865480" fromLane="0" toLane="0" via=":1563323934_3_0" dir="t" state="="/>
    <connection from="-143009954" to="143009954" fromLane="0" toLane="0" via=":1564814058_0_0" dir="t" state="M"/>
    <connection from="-143329356#0" to="142865480" fromLane="0" toLane="0" via=":1563323934_4_0" dir="r" state="="/>
    <connection from="-143329356#0" to="143329356#0" fromLane="0" toLane="0" via=":1563323934_5_0" dir="t" state="="/>
    <connection from="-143329356#1" to="-142865467" fromLane="0" toLane="0" via=":316106332_3_0" dir="s" state="="/>
    <connection from="-143329356#1" to="-143329356#0" fromLane="0" toLane="0" via=":316106332_4_0" dir="s" state="="/>
    <connection from="-143329356#1" to="143329356#1" fromLane="0" toLane="0" via=":316106332_5_0" dir="t" state="="/>
    <connection from="-143329370" to="143329356#0" fromLane="0" toLane="0" via=":1563323934_0_0" dir="L" state="="/>
    <connection from="-143329370" to="142865480" fromLane="0" toLane="0" via=":1563323934_1_0" dir="l" state="="/>
    <connection from="-143329373" to="-142865480" fromLane="0" toLane="0" via=":316106197_2_0" dir="r" state="="/>
    <connection from="-143329373" to="143329372" fromLane="0" toLane="1" via=":316106197_3_0" dir="l" state="="/>
    <connection from="-143655135#1" to="-143655135#0" fromLane="0" toLane="0" via=":1572123659_5_0" dir="r" state="="/>
    <connection from="-143655135#1" to="143655142" fromLane="0" toLane="0" via=":1572123659_6_0" dir="s" state="="/>
    <connection from="-143655135#1" to="143655135#1" fromLane="0" toLane="0" via=":1572123659_7_0" dir="t" state="="/>
    <connection from="-143655142" to="143655135#1" fromLane="0" toLane="0" via=":1572123659_0_0" dir="s" state="="/>
    <connection from="-143655142" to="-143655135#0" fromLane="0" toLane="0" via=":1572123659_1_0" dir="l" state="="/>
    <connection from="-143655142" to="143655142" fromLane="0" toLane="0" via=":1572123659_2_0" dir="t" state="="/>
    <connection from="-143655835#0" to="143655840#1" fromLane="0" toLane="0" via=":1572144743_2_0" dir="r" state="m"/>
    <connection from="-143655835#0" to="143655835#0" fromLane="0" toLane="0" via=":1572144743_3_0" dir="t" state="m"/>
    <connection from="-143655835#1" to="-143655835#0" fromLane="0" toLane="0" via=":1572144651_4_0" dir="s" state="="/>
    <connection from="-143655835#1" to="143655835#1" fromLane="0" toLane="0" via=":1572144651_5_0" dir="t" state="="/>
    <connection from="-143655838" to="-143655835#0" fromLane="0" toLane="0" via=":1572144651_2_0" dir="s" state="="/>
    <connection from="-143655838" to="143655835#1" fromLane="1" toLane="0" via=":1572144651_3_0" dir="l" state="="/>
    <connection from="-143655853" to="-143655838" fromLane="0" toLane="0" via=":1572144752_2_0" dir="s" state="="/>
    <connection from="-143655853" to="143655853" fromLane="0" toLane="0" via=":1572144752_3_0" dir="t" state="="/>
    <connection from="-231975294" to="50846720#3" fromLane="0" toLane="0" via=":2402962022_6_0" dir="r" state="m"/>
    <connection from="-231975294" to="-50846720#2" fromLane="0" toLane="1" via=":2402962022_7_0" dir="l" state="m"/>
    <connection from="-244626184#1" to="312092835" fromLane="0" toLane="0" via=":3910053197_2_0" dir="r" state="M"/>
    <connection from="-244626184#1" to="-244626184#0" fromLane="0" toLane="0" via=":3910053197_3_0" dir="s" state="M"/>
    <connection from="-244626184#1" to="244626184#1" fromLane="0" toLane="0" via=":3910053197_4_0" dir="t" state="m"/>
    <connection from="-244626184#2" to="-5984107" fromLane="0" toLane="0" via=":49312464_2_0" dir="r" state="M"/>
    <connection from="-244626184#2" to="-244626184#1" fromLane="0" toLane="0" via=":49312464_3_0" dir="s" state="M"/>
    <connection from="-244626184#2" to="244626184#2" fromLane="0" toLane="0" via=":49312464_4_0" dir="t" state="m"/>
    <connection from="-28749853" to="-50846720#8" fromLane="0" toLane="0" via=":49267040_8_0" dir="r" state="m"/>
    <connection from="-28749853" to="5978540" fromLane="0" toLane="0" via=":49267040_9_0" dir="s" state="m"/>
    <connection from="-28749853" to="50846720#9" fromLane="0" toLane="1" via=":49267040_10_0" dir="l" state="m"/>
    <connection from="-28749905" to="-50846720#6" fromLane="0" toLane="0" via=":316103509_3_0" dir="r" state="m"/>
    <connection from="-28749905" to="50846720#7" fromLane="0" toLane="1" via=":316103509_4_0" dir="l" state="m"/>
    <connection from="-312092835" to="-244626184#0" fromLane="0" toLane="0" via=":3910053197_0_0" dir="r" state="m"/>
    <connection from="-312092835" to="244626184#1" fromLane="0" toLane="0" via=":3910053197_1_0" dir="l" state="m"/>
    <connection from="-4311" to="5986247#2" fromLane="0" toLane="0" via=":49328755_3_0" dir="r" state="m"/>
    <connection from="-4311" to="-5986247#1" fromLane="0" toLane="0" via=":49328755_4_0" dir="l" state="m"/>
    <connection from="-50846713#1" to="49187078#3" fromLane="0" toLane="0" via=":cluster_648538736_648538737_0_0" tl="cluster_648538736_648538737" linkIndex="0" dir="r" state="o"/>
    <connection from="-50846713#1" to="-5974128" fromLane="0" toLane="0" via=":cluster_648538736_648538737_1_0" tl="cluster_648538736_648538737" linkIndex="1" dir="s" state="o"/>
    <connection from="-50846713#1" to="50846755#3" fromLane="1" toLane="0" via=":cluster_648538736_648538737_2_0" tl="cluster_648538736_648538737" linkIndex="2" dir="l" state="o"/>
    <connection from="-50846713#1" to="50846755#3" fromLane="2" toLane="1" via=":cluster_648538736_648538737_2_1" tl="cluster_648538736_648538737" linkIndex="3" dir="l" state="o"/>
    <connection from="-50846713#2" to="-50846713#1" fromLane="0" toLane="1" via=":1559811806_0_0" dir="s" state="M"/>
    <connection from="-50846713#2" to="-50846713#1" fromLane="1" toLane="2" via=":1559811806_0_1" dir="s" state="M"/>
    <connection from="-50846720#0" to="-143009954" fromLane="0" toLane="1" via=":49228579_12_0" tl="49228579" linkIndex="12" dir="s" state="o"/>
    <connection from="-50846720#0" to="-142530979" fromLane="0" toLane="1" via=":49228579_13_0" tl="49228579" linkIndex="13" dir="s" state="o"/>
    <connection from="-50846720#1" to="-50846720#1.35" fromLane="0" toLane="0" via=":-50846720#1.35_0_0" dir="s" state="M"/>
    <connection from="-50846720#1" to="-50846720#1.35" fromLane="0" toLane="1" via=":-50846720#1.35_0_1" dir="s" state="M"/>
    <connection from="-50846720#1" to="-50846720#1.35" fromLane="1" toLane="2" via=":-50846720#1.35_0_2" dir="s" state="M"/>
    <connection from="-50846720#1.35" to="142530980" fromLane="0" toLane="0" via=":1559811808_2_0" dir="s" state="M"/>
    <connection from="-50846720#1.35" to="142530980" fromLane="1" toLane="1" via=":1559811808_2_1" dir="s" state="M"/>
    <connection from="-50846720#1.35" to="-50846720#0" fromLane="2" toLane="0" via=":1559811808_4_0" dir="s" state="M"/>
    <connection from="-50846720#10" to="5964233" fromLane="0" toLane="0" via=":49133276_13_0" dir="r" state="M"/>
    <connection from="-50846720#10" to="-50846720#9" fromLane="0" toLane="0" via=":49133276_14_0" dir="s" state="M"/>
    <connection from="-50846720#10" to="-50846720#9" fromLane="1" toLane="1" via=":49133276_14_1" dir="s" state="M"/>
    <connection from="-50846720#10" to="-5976858#1" fromLane="1" toLane="0" via=":49133276_16_0" dir="l" state="m"/>
    <connection from="-50846720#10" to="50846720#10" fromLane="1" toLane="1" via=":49133276_17_0" dir="t" state="m"/>
    <connection from="-50846720#11" to="5987516" fromLane="0" toLane="0" via=":49297293_6_0" dir="r" state="M"/>
    <connection from="-50846720#11" to="-50846720#10" fromLane="0" toLane="0" via=":49297293_7_0" dir="s" state="M"/>
    <connection from="-50846720#11" to="-50846720#10" fromLane="1" toLane="1" via=":49297293_7_1" dir="s" state="M"/>
    <connection from="-50846720#11" to="50846720#11" fromLane="1" toLane="1" via=":49297293_9_0" dir="t" state="m"/>
    <connection from="-50846720#12" to="-50846720#11" fromLane="0" toLane="0" via=":49274762_4_0" dir="s" state="M"/>
    <connection from="-50846720#12" to="-50846720#11" fromLane="1" toLane="1" via=":49274762_4_1" dir="s" state="M"/>
    <connection from="-50846720#12" to="-5979291#1" fromLane="1" toLane="0" via=":49274762_6_0" dir="l" state="m"/>
    <connection from="-50846720#12" to="50846720#12" fromLane="1" toLane="1" via=":49274762_7_0" dir="t" state="m"/>
    <connection from="-50846720#2" to="-50846720#1" fromLane="0" toLane="0" via=":49297284_3_0" dir="s" state="M"/>
    <connection from="-50846720#2" to="-50846720#1" fromLane="1" toLane="1" via=":49297284_3_1" dir="s" state="M"/>
    <connection from="-50846720#2" to="5988429#0" fromLane="1" toLane="0" via=":49297284_5_0" dir="l" state="m"/>
    <connection from="-50846720#3" to="-50846720#2" fromLane="0" toLane="0" via=":2402962022_3_0" dir="s" state="M"/>
    <connection from="-50846720#3" to="-50846720#2" fromLane="1" toLane="1" via=":2402962022_3_1" dir="s" state="M"/>
    <connection from="-50846720#3" to="231975294" fromLane="1" toLane="0" via=":2402962022_5_0" dir="l" state="m"/>
    <connection from="-50846720#4" to="-5977975" fromLane="0" toLane="0" via=":49261925_5_0" dir="r" state="M"/>
    <connection from="-50846720#4" to="-50846720#3" fromLane="0" toLane="0" via=":49261925_6_0" dir="s" state="M"/>
    <connection from="-50846720#4" to="-50846720#3" fromLane="1" toLane="1" via=":49261925_6_1" dir="s" state="M"/>
    <connection from="-50846720#6" to="-50846720#6.20" fromLane="0" toLane="0" via=":-50846720#6.20_0_0" dir="s" state="M"/>
    <connection from="-50846720#6" to="-50846720#6.20" fromLane="0" toLane="1" via=":-50846720#6.20_0_1" dir="s" state="M"/>
    <connection from="-50846720#6" to="-50846720#6.20" fromLane="1" toLane="2" via=":-50846720#6.20_0_2" dir="s" state="M"/>
    <connection from="-50846720#6" to="-50846720#6.20" fromLane="1" toLane="3" via=":-50846720#6.20_0_3" dir="s" state="M"/>
    <connection from="-50846720#6" to="-50846720#6.20" fromLane="1" toLane="4" via=":-50846720#6.20_0_4" dir="s" state="M"/>
    <connection from="-50846720#6.20" to="243728742#1" fromLane="0" toLane="0" via=":cluster_2511020106_49297289_17_0" tl="cluster_2511020106_49297289" linkIndex="17" dir="r" state="o"/>
    <connection from="-50846720#6.20" to="-50846720#4" fromLane="1" toLane="0" via=":cluster_2511020106_49297289_18_0" tl="cluster_2511020106_49297289" linkIndex="18" dir="s" state="o"/>
    <connection from="-50846720#6.20" to="-50846720#4" fromLane="2" toLane="1" via=":cluster_2511020106_49297289_18_1" tl="cluster_2511020106_49297289" linkIndex="19" dir="s" state="o"/>
    <connection from="-50846720#6.20" to="243728741#4" fromLane="3" toLane="0" via=":cluster_2511020106_49297289_20_0" tl="cluster_2511020106_49297289" linkIndex="20" dir="l" state="o"/>
    <connection from="-50846720#6.20" to="243728741#4" fromLane="4" toLane="1" via=":cluster_2511020106_49297289_20_1" tl="cluster_2511020106_49297289" linkIndex="21" dir="l" state="o"/>
    <connection from="-50846720#7" to="28749905" fromLane="0" toLane="0" via=":316103509_5_0" dir="r" state="M"/>
    <connection from="-50846720#7" to="-50846720#6" fromLane="0" toLane="0" via=":316103509_6_0" dir="s" state="M"/>
    <connection from="-50846720#7" to="-50846720#6" fromLane="1" toLane="1" via=":316103509_6_1" dir="s" state="M"/>
    <connection from="-50846720#8" to="-5967019" fromLane="0" toLane="0" via=":49156423_6_0" dir="r" state="M"/>
    <connection from="-50846720#8" to="-50846720#7" fromLane="0" toLane="0" via=":49156423_7_0" dir="s" state="M"/>
    <connection from="-50846720#8" to="-50846720#7" fromLane="1" toLane="1" via=":49156423_7_1" dir="s" state="M"/>
    <connection from="-50846720#8" to="50846720#8" fromLane="1" toLane="1" via=":49156423_9_0" dir="t" state="m"/>
    <connection from="-50846720#9" to="28749853" fromLane="0" toLane="0" via=":49267040_11_0" dir="r" state="M"/>
    <connection from="-50846720#9" to="-50846720#8" fromLane="0" toLane="0" via=":49267040_12_0" dir="s" state="M"/>
    <connection from="-50846720#9" to="-50846720#8" fromLane="1" toLane="1" via=":49267040_12_1" dir="s" state="M"/>
    <connection from="-50846720#9" to="5978540" fromLane="1" toLane="0" via=":49267040_14_0" dir="l" state="m"/>
    <connection from="-50846720#9" to="50846720#9" fromLane="1" toLane="1" via=":49267040_15_0" dir="t" state="m"/>
    <connection from="-50846762" to="50846782#2" fromLane="0" toLane="0" via=":648538922_2_0" dir="r" state="m"/>
    <connection from="-50846762" to="-50846782#1" fromLane="0" toLane="0" via=":648538922_3_0" dir="l" state="m"/>
    <connection from="-50846765" to="-50846720#12" fromLane="0" toLane="0" via=":648538771_2_0" dir="s" state="M"/>
    <connection from="-50846765" to="-50846720#12" fromLane="1" toLane="1" via=":648538771_2_1" dir="s" state="M"/>
    <connection from="-50846769" to="-50846769.75" fromLane="1" toLane="0" via=":-50846769.75_0_0" dir="s" state="M"/>
    <connection from="-50846769" to="-50846769.75" fromLane="2" toLane="1" via=":-50846769.75_0_1" dir="s" state="M"/>
    <connection from="-50846769.75" to="-50846765" fromLane="0" toLane="0" via=":49297296_1_0" dir="s" state="M"/>
    <connection from="-50846769.75" to="-50846765" fromLane="1" toLane="1" via=":49297296_1_1" dir="s" state="M"/>
    <connection from="-50846769.75" to="143655840#0" fromLane="1" toLane="0" via=":49297296_3_0" dir="l" state="m"/>
    <connection from="-50846782#1" to="-50846782#0" fromLane="0" toLane="0" via=":648538994_0_0" dir="s" state="M"/>
    <connection from="-50846782#1" to="-5986247#2" fromLane="0" toLane="0" via=":648538994_1_0" dir="l" state="m"/>
    <connection from="-50846782#1" to="50846782#1" fromLane="0" toLane="0" via=":648538994_2_0" dir="t" state="m"/>
    <connection from="-50846782#2" to="-50846782#1" fromLane="0" toLane="0" via=":648538922_0_0" dir="s" state="M"/>
    <connection from="-50846782#2" to="50846762" fromLane="0" toLane="0" via=":648538922_1_0" dir="l" state="m"/>
    <connection from="-5964233" to="-50846720#9" fromLane="0" toLane="0" via=":49133276_9_0" dir="r" state="m"/>
    <connection from="-5964233" to="-5976858#1" fromLane="0" toLane="0" via=":49133276_10_0" dir="s" state="m"/>
    <connection from="-5964233" to="50846720#10" fromLane="0" toLane="1" via=":49133276_11_0" dir="l" state="m"/>
    <connection from="-5964233" to="5964233" fromLane="0" toLane="0" via=":49133276_12_0" dir="t" state="m"/>
    <connection from="-5965712" to="5972214#1" fromLane="0" toLane="0" via=":49145923_2_0" dir="r" state="m"/>
    <connection from="-5965712" to="-5972214#0" fromLane="0" toLane="0" via=":49145923_3_0" dir="l" state="m"/>
    <connection from="-5965712" to="5965712" fromLane="0" toLane="0" via=":49145923_4_0" dir="t" state="m"/>
    <connection from="-5967393" to="-76697654#1" fromLane="0" toLane="0" via=":49156808_0_0" dir="r" state="m"/>
    <connection from="-5967393" to="76697654#2" fromLane="0" toLane="0" via=":49156808_1_0" dir="l" state="m"/>
    <connection from="-5967694" to="-5991369#1" fromLane="0" toLane="0" via=":49162947_6_0" dir="r" state="m"/>
    <connection from="-5967694" to="5991369#2" fromLane="0" toLane="0" via=":49162947_7_0" dir="l" state="m"/>
    <connection from="-5968215#0" to="5971039#1" fromLane="0" toLane="0" via=":49167790_0_0" dir="r" state="m"/>
    <connection from="-5968215#0" to="-5971039#0" fromLane="0" toLane="0" via=":49167790_1_0" dir="l" state="m"/>
    <connection from="-5968215#2" to="5982169#0" fromLane="0" toLane="0" via=":cluster_298135838_49135231_0_0" tl="cluster_298135838_49135231" linkIndex="0" dir="r" state="o"/>
    <connection from="-5968215#2" to="-5968215#0" fromLane="1" toLane="0" via=":cluster_298135838_49135231_1_0" tl="cluster_298135838_49135231" linkIndex="1" dir="s" state="o"/>
    <connection from="-5968215#2" to="26467810" fromLane="1" toLane="2" via=":cluster_298135838_49135231_2_0" tl="cluster_298135838_49135231" linkIndex="2" dir="l" state="o"/>
    <connection from="-5968215#3" to="-5968215#2" fromLane="0" toLane="0" via=":49167776_0_0" dir="s" state="M"/>
    <connection from="-5968215#3" to="-143655853" fromLane="0" toLane="0" via=":49167776_1_0" dir="l" state="m"/>
    <connection from="-5971039#1" to="-5971039#0" fromLane="0" toLane="0" via=":49167790_4_0" dir="s" state="M"/>
    <connection from="-5971039#1" to="5968215#0" fromLane="0" toLane="0" via=":49167790_5_0" dir="l" state="m"/>
    <connection from="-5971039#2" to="-5971039#1" fromLane="0" toLane="0" via=":49197855_5_0" dir="s" state="M"/>
    <connection from="-5971039#2" to="5972921" fromLane="0" toLane="0" via=":49197855_6_0" dir="l" state="m"/>
    <connection from="-5971039#2" to="5971039#2" fromLane="0" toLane="0" via=":49197855_7_0" dir="t" state="m"/>
    <connection from="-5971039#3" to="-5971039#2" fromLane="0" toLane="0" via=":49197856_5_0" dir="s" state="M"/>
    <connection from="-5971039#3" to="5986184" fromLane="0" toLane="0" via=":49197856_6_0" dir="l" state="m"/>
    <connection from="-5971039#3" to="5971039#3" fromLane="0" toLane="0" via=":49197856_7_0" dir="t" state="m"/>
    <connection from="-5972211#1" to="-5972211#0" fromLane="0" toLane="0" via=":49210375_0_0" dir="s" state="M"/>
    <connection from="-5972211#1" to="-5972515" fromLane="0" toLane="0" via=":49210375_1_0" dir="l" state="m"/>
    <connection from="-5972211#1" to="5972211#1" fromLane="0" toLane="0" via=":49210375_2_0" dir="t" state="m"/>
    <connection from="-5972214#0" to="-5976247" fromLane="0" toLane="0" via=":49210383_0_0" dir="r" state="M"/>
    <connection from="-5972214#0" to="-5972211#1" fromLane="0" toLane="0" via=":49210383_1_0" dir="s" state="M"/>
    <connection from="-5972214#0" to="5972214#0" fromLane="0" toLane="0" via=":49210383_2_0" dir="t" state="m"/>
    <connection from="-5972214#1" to="-5972214#0" fromLane="0" toLane="0" via=":49145923_0_0" dir="s" state="M"/>
    <connection from="-5972214#1" to="5965712" fromLane="0" toLane="0" via=":49145923_1_0" dir="l" state="m"/>
    <connection from="-5972515" to="-76697654#2" fromLane="0" toLane="0" via=":49156814_0_0" dir="r" state="m"/>
    <connection from="-5972515" to="76697654#3" fromLane="0" toLane="0" via=":49156814_1_0" dir="l" state="m"/>
    <connection from="-5972515" to="5972515" fromLane="0" toLane="0" via=":49156814_2_0" dir="t" state="m"/>
    <connection from="-5972921" to="5971039#2" fromLane="0" toLane="0" via=":49197855_0_0" dir="r" state="m"/>
    <connection from="-5972921" to="-5971039#1" fromLane="0" toLane="0" via=":49197855_1_0" dir="l" state="m"/>
    <connection from="-5973964" to="-5988429#0" fromLane="0" toLane="0" via=":49226849_6_0" dir="r" state="m"/>
    <connection from="-5973964" to="5988429#1" fromLane="0" toLane="0" via=":49226849_7_0" dir="l" state="m"/>
    <connection from="-5973964" to="5973964" fromLane="0" toLane="0" via=":49226849_8_0" dir="t" state="m"/>
    <connection from="-5976858#0" to="5991176" fromLane="0" toLane="0" via=":49251760_0_0" dir="l" state="M"/>
    <connection from="-5976858#0" to="5976858#0" fromLane="0" toLane="0" via=":49251760_1_0" dir="t" state="m"/>
    <connection from="-5976858#1" to="-5986306" fromLane="0" toLane="0" via=":49251763_2_0" dir="r" state="M"/>
    <connection from="-5976858#1" to="-5976858#0" fromLane="0" toLane="0" via=":49251763_3_0" dir="s" state="M"/>
    <connection from="-5976858#1" to="5976858#1" fromLane="0" toLane="0" via=":49251763_4_0" dir="t" state="m"/>
    <connection from="-5977975" to="-5991369#2" fromLane="0" toLane="0" via=":49261923_5_0" dir="r" state="m"/>
    <connection from="-5977975" to="5991369#3" fromLane="0" toLane="0" via=":49261923_6_0" dir="l" state="m"/>
    <connection from="-5977975" to="5977975" fromLane="0" toLane="0" via=":49261923_7_0" dir="t" state="m"/>
    <connection from="-5978540" to="50846720#9" fromLane="0" toLane="0" via=":49267040_0_0" dir="r" state="m"/>
    <connection from="-5978540" to="28749853" fromLane="0" toLane="0" via=":49267040_1_0" dir="s" state="m"/>
    <connection from="-5978540" to="-50846720#8" fromLane="0" toLane="1" via=":49267040_2_0" dir="l" state="m"/>
    <connection from="-5978993" to="-5991369#0" fromLane="0" toLane="0" via=":49271376_0_0" dir="r" state="m"/>
    <connection from="-5978993" to="5991369#1" fromLane="0" toLane="0" via=":49271376_1_0" dir="l" state="m"/>
    <connection from="-5979291#1" to="-5991176" fromLane="0" toLane="0" via=":49274745_3_0" dir="r" state="M"/>
    <connection from="-5979291#1" to="-5979291#0" fromLane="0" toLane="0" via=":49274745_4_0" dir="s" state="M"/>
    <connection from="-5979291#1" to="5979291#1" fromLane="0" toLane="0" via=":49274745_5_0" dir="t" state="m"/>
    <connection from="-5986184" to="5971039#3" fromLane="0" toLane="0" via=":49197856_0_0" dir="r" state="m"/>
    <connection from="-5986184" to="-5971039#2" fromLane="0" toLane="0" via=":49197856_1_0" dir="l" state="m"/>
    <connection from="-5986247#1" to="-5986247#0" fromLane="0" toLane="0" via=":49197869_0_0" dir="s" state="M"/>
    <connection from="-5986247#1" to="-5971039#3" fromLane="0" toLane="0" via=":49197869_1_0" dir="l" state="m"/>
    <connection from="-5986247#1" to="5986247#1" fromLane="0" toLane="0" via=":49197869_2_0" dir="t" state="m"/>
    <connection from="-5986247#2" to="-5986247#1" fromLane="0" toLane="0" via=":49328755_0_0" dir="s" state="M"/>
    <connection from="-5986247#2" to="--4311" fromLane="0" toLane="0" via=":49328755_1_0" dir="l" state="m"/>
    <connection from="-5986247#2" to="5986247#2" fromLane="0" toLane="0" via=":49328755_2_0" dir="t" state="m"/>
    <connection from="-5987392" to="-76697654#0" fromLane="0" toLane="0" via=":49156806_0_0" dir="r" state="m"/>
    <connection from="-5987392" to="76697654#1" fromLane="0" toLane="0" via=":49156806_1_0" dir="l" state="m"/>
    <connection from="-5987516" to="-50846720#10" fromLane="0" toLane="0" via=":49297293_4_0" dir="r" state="m"/>
    <connection from="-5987516" to="50846720#11" fromLane="0" toLane="1" via=":49297293_5_0" dir="l" state="m"/>
    <connection from="-5988429#0" to="50846720#2" fromLane="0" toLane="0" via=":49297284_6_0" dir="r" state="m"/>
    <connection from="-5988429#0" to="-50846720#1" fromLane="0" toLane="1" via=":49297284_7_0" dir="l" state="m"/>
    <connection from="-5988429#1" to="5973964" fromLane="0" toLane="0" via=":49226849_0_0" dir="r" state="M"/>
    <connection from="-5988429#1" to="-5988429#0" fromLane="0" toLane="0" via=":49226849_1_0" dir="s" state="M"/>
    <connection from="-5988429#1" to="5988429#1" fromLane="0" toLane="0" via=":49226849_2_0" dir="t" state="m"/>
    <connection from="-5988429#2" to="-5988429#1" fromLane="0" toLane="0" via=":1572123653_0_0" dir="s" state="M"/>
    <connection from="-5988429#2" to="-143655135#1" fromLane="0" toLane="0" via=":1572123653_1_0" dir="l" state="m"/>
    <connection from="-5988429#2" to="5988429#2" fromLane="0" toLane="0" via=":1572123653_2_0" dir="t" state="m"/>
    <connection from="-5988429#3" to="-5988429#2" fromLane="0" toLane="0" via=":1572123805_0_0" dir="s" state="M"/>
    <connection from="-5988429#3" to="5988429#3" fromLane="0" toLane="0" via=":1572123805_1_0" dir="t" state="m"/>
    <connection from="-5991176" to="5976858#0" fromLane="0" toLane="0" via=":49251760_2_0" dir="r" state="M"/>
    <connection from="-5991176" to="5991176" fromLane="0" toLane="0" via=":49251760_3_0" dir="t" state="m"/>
    <connection from="-5991368#0" to="243728742#2.0" fromLane="0" toLane="1" via=":1568545296_0_0" dir="l" state="m"/>
    <connection from="-5991368#0" to="5991368#0" fromLane="0" toLane="0" via=":1568545296_1_0" dir="t" state="m"/>
    <connection from="-5991368#1" to="243728741#3" fromLane="0" toLane="0" via=":2511020105_0_0" dir="r" state="m"/>
    <connection from="-5991368#1" to="-5991368#0" fromLane="0" toLane="0" via=":2511020105_1_0" dir="s" state="m"/>
    <connection from="-5991368#2" to="-5991368#1" fromLane="0" toLane="0" via=":49374717_6_0" dir="r" state="m"/>
    <connection from="-5991368#2" to="5991369#0" fromLane="0" toLane="0" via=":49374717_7_0" dir="l" state="m"/>
    <connection from="-5991369#0" to="5991368#2" fromLane="0" toLane="0" via=":49374717_0_0" dir="r" state="M"/>
    <connection from="-5991369#0" to="-5991368#1" fromLane="0" toLane="0" via=":49374717_1_0" dir="s" state="M"/>
    <connection from="-5991369#0" to="5991369#0" fromLane="0" toLane="0" via=":49374717_2_0" dir="t" state="m"/>
    <connection from="-5991369#1" to="5978993" fromLane="0" toLane="0" via=":49271376_2_0" dir="r" state="M"/>
    <connection from="-5991369#1" to="-5991369#0" fromLane="0" toLane="0" via=":49271376_3_0" dir="s" state="M"/>
    <connection from="-5991369#1" to="5991369#1" fromLane="0" toLane="0" via=":49271376_4_0" dir="t" state="m"/>
    <connection from="-5991369#2" to="5967694" fromLane="0" toLane="0" via=":49162947_0_0" dir="r" state="M"/>
    <connection from="-5991369#2" to="-5991369#1" fromLane="0" toLane="0" via=":49162947_1_0" dir="s" state="M"/>
    <connection from="-5991369#2" to="5991369#2" fromLane="0" toLane="0" via=":49162947_2_0" dir="t" state="m"/>
    <connection from="-5991369#3" to="5977975" fromLane="0" toLane="0" via=":49261923_0_0" dir="r" state="M"/>
    <connection from="-5991369#3" to="-5991369#2" fromLane="0" toLane="0" via=":49261923_1_0" dir="s" state="M"/>
    <connection from="-76697654#0" to="76697655#0" fromLane="0" toLane="0" via=":648539751_0_0" dir="s" state="M"/>
    <connection from="-76697654#0" to="76697654#0" fromLane="0" toLane="0" via=":648539751_1_0" dir="t" state="m"/>
    <connection from="-76697654#1" to="5987392" fromLane="0" toLane="0" via=":49156806_2_0" dir="r" state="M"/>
    <connection from="-76697654#1" to="-76697654#0" fromLane="0" toLane="0" via=":49156806_3_0" dir="s" state="M"/>
    <connection from="-76697654#1" to="76697654#1" fromLane="0" toLane="0" via=":49156806_4_0" dir="t" state="m"/>
    <connection from="-76697654#2" to="5967393" fromLane="0" toLane="0" via=":49156808_2_0" dir="r" state="M"/>
    <connection from="-76697654#2" to="-76697654#1" fromLane="0" toLane="0" via=":49156808_3_0" dir="s" state="M"/>
    <connection from="-76697654#2" to="76697654#2" fromLane="0" toLane="0" via=":49156808_4_0" dir="t" state="m"/>
    <connection from="-76697654#3" to="5972515" fromLane="0" toLane="0" via=":49156814_3_0" dir="r" state="M"/>
    <connection from="-76697654#3" to="-76697654#2" fromLane="0" toLane="0" via=":49156814_4_0" dir="l" state="M"/>
    <connection from="-76697654#3" to="76697654#3" fromLane="0" toLane="0" via=":49156814_5_0" dir="t" state="m"/>
    <connection from="-89534885" to="89534885" fromLane="1" toLane="1" via=":49305334_0_0" dir="t" state="M"/>
    <connection from="114850054#1" to="116069075#0" fromLane="0" toLane="1" pass="1" via=":290051898_1_0" dir="s" state="M"/>
    <connection from="114850054#1" to="116069075#0" fromLane="1" toLane="2" pass="1" via=":290051898_1_1" dir="s" state="M"/>
    <connection from="114850085#0" to="114850085#1" fromLane="0" toLane="0" via=":903682995_1_0" dir="s" state="M"/>
    <connection from="114850085#0" to="114850085#1" fromLane="1" toLane="1" via=":903682995_1_1" dir="s" state="M"/>
    <connection from="114850085#0" to="114850085#1" fromLane="2" toLane="2" via=":903682995_1_2" dir="s" state="M"/>
    <connection from="116069075#0" to="116069075#0.376" fromLane="0" toLane="0" via=":116069075#0.376_0_0" dir="s" state="M"/>
    <connection from="116069075#0" to="116069075#0.376" fromLane="1" toLane="1" via=":116069075#0.376_0_1" dir="s" state="M"/>
    <connection from="116069075#0" to="116069075#0.376" fromLane="2" toLane="2" via=":116069075#0.376_0_2" dir="s" state="M"/>
    <connection from="116069075#0" to="116069075#0.376" fromLane="2" toLane="3" via=":116069075#0.376_0_3" dir="s" state="M"/>
    <connection from="116069075#0.376" to="-50846782#2" fromLane="0" toLane="0" via=":cluster_290051904_49145925_11_0" tl="cluster_290051904_49145925" linkIndex="11" dir="r" state="o"/>
    <connection from="116069075#0.376" to="116069075#1" fromLane="0" toLane="0" via=":cluster_290051904_49145925_12_0" tl="cluster_290051904_49145925" linkIndex="12" dir="s" state="o"/>
    <connection from="116069075#0.376" to="116069075#1" fromLane="1" toLane="1" via=":cluster_290051904_49145925_12_1" tl="cluster_290051904_49145925" linkIndex="13" dir="s" state="o"/>
    <connection from="116069075#0.376" to="116069075#1" fromLane="2" toLane="2" via=":cluster_290051904_49145925_12_2" tl="cluster_290051904_49145925" linkIndex="14" dir="s" state="o"/>
    <connection from="116069075#0.376" to="-5965712" fromLane="3" toLane="0" via=":cluster_290051904_49145925_15_0" tl="cluster_290051904_49145925" linkIndex="15" dir="l" state="o"/>
    <connection from="116069075#1" to="116069075#1.264" fromLane="0" toLane="0" via=":116069075#1.264_0_0" dir="s" state="M"/>
    <connection from="116069075#1" to="116069075#1.264" fromLane="0" toLane="1" via=":116069075#1.264_0_1" dir="s" state="M"/>
    <connection from="116069075#1" to="116069075#1.264" fromLane="1" toLane="2" via=":116069075#1.264_0_2" dir="s" state="M"/>
    <connection from="116069075#1" to="116069075#1.264" fromLane="2" toLane="3" via=":116069075#1.264_0_3" dir="s" state="M"/>
    <connection from="116069075#1.264" to="116069075#1.338" fromLane="0" toLane="0" via=":116069075#1.338_0_0" dir="s" state="M"/>