
<!--<flows>
	<flow id="0" from="243728741#0"  begin="0" end="3600" number="823"/>
	<flow id="1" from="26467810.54"  begin="0" end="3600" number="236"/>
	<flow id="2" from="243728742#0.50"  begin="0" end="3600" number="1233"/>
	<flow id="3" from="50846710#1.45"  begin="0" end="3600" number="723"/>
	<flow id="4" from="gneE17.147"  begin="0" end="3600" number="226"/>
</flows> -->
<flows>
	<flow id="0" from="244626184#2"  begin="0" end="3600" number="722"/>
	<flow id="1" from="243728741#0"  begin="0" end="3600" number="676"/>
	<flow id="2" from="5968215#0"  begin="0" end="3600" number="87"/>
	<!--flow id="3" from="-5968215#2"  begin="0" end="3600" number="1727"/-->
	<flow id="3" from="-5968215#2"  begin="0" end="3600" number="1000"/>
	<!--flow id="4" from="5965712"  begin="0" end="3600" number="1762"/-->
	<flow id="4" from="5965712"  begin="0" end="3600" number="1000"/>
	<flow id="5" from="50846782#2"  begin="0" end="3600" number="93"/>
	<flow id="6" from="116069075#0"  begin="0" end="3600" number="1541"/>
	<flow id="7" from="5974128"  begin="0" end="3600" number="10"/>
	<flow id="8" from="gneE17.147"  begin="0" end="3600" number="181"/>
	<flow id="9" from="50846710#1.45"  begin="0" end="3600" number="186"/>
	<flow id="10" from="143009954"  begin="0" end="3600" number="344"/>
</flows>
