<edges>
    <edge from="1" id="1to2" to="2" />
    <edge from="2" id="2to3" to="3" />
    <edge from="3" id="out" to="4" />
</edges>
