<?xml version="1.0" encoding="UTF-8"?>

<!-- generated on 04/29/16 18:00:33 by SUMO jtrrouter Version 0.24.0
<?xml version="1.0" encoding="UTF-8"?>

<configuration xmlns:xsi="http://www.w3.org/2001/XMLSchema-instance" xsi:noNamespaceSchemaLocation="http://sumo.dlr.de/xsd/jtrrouterConfiguration.xsd">

    <input>
        <net-file value="huntingtonColorado.net.xml"/>
        <flow-files value="huntingtonColorado.flows.xml"/>
        <turn-ratio-files value="huntingtonColorado.turns.xml"/>
    </input>

    <output>
        <output-file value="huntingtonColorado.rou.xml"/>
    </output>

    <processing>
        <ignore-errors value="true"/>
    </processing>

    <defaults>
        <departlane value="best"/>
    </defaults>

    <report>
        <xml-validation value="never"/>
        <no-step-log value="true"/>
    </report>

</configuration>
-->

<routes xmlns:xsi="http://www.w3.org/2001/XMLSchema-instance" xsi:noNamespaceSchemaLocation="http://sumo.dlr.de/xsd/routes_file.xsd">
    <vehicle id="type0.0" depart="0.00" departLane="best" color="red">
        <route edges="2to14 14to1 1to15 15to6 6to7"/>
    </vehicle>
    <vehicle id="type1.0" depart="0.00" departLane="best" color="green">
        <route edges="5to4 4to1 1to17 17to3"/>
    </vehicle>
    <vehicle id="type2.0" depart="0.00" departLane="best" color="blue">
        <route edges="3to17 17to1 1to4 4to5"/>
    </vehicle>
    <vehicle id="type4.0" depart="0.00" departLane="best" color="yellow">
        <route edges="7to6 6to15 15to1 1to14 14to2"/>
    </vehicle>
    <vehicle id="type0.1" depart="0.36" departLane="best" color="red">
        <route edges="2to14 14to1 1to15 15to6 6to7"/>
    </vehicle>
    <vehicle id="type4.1" depart="0.36" departLane="best" color="yellow">
        <route edges="7to6 6to15 15to1 1to14 14to2"/>
    </vehicle>
    <vehicle id="type0.2" depart="0.72" departLane="best" color="red">
        <route edges="2to14 14to1 1to17 17to3"/>
    </vehicle>
    <vehicle id="type4.2" depart="0.72" departLane="best" color="yellow">
        <route edges="7to6 6to15 15to1 1to4 4to5"/>
    </vehicle>
    <vehicle id="type0.3" depart="1.08" departLane="best" color="red">
        <route edges="2to14 14to1 1to15 15to6 6to7"/>
    </vehicle>
    <vehicle id="type4.3" depart="1.08" departLane="best" color="yellow">
        <route edges="7to6 6to15 15to1 1to14 14to2"/>
    </vehicle>
    <vehicle id="type0.4" depart="1.44" departLane="best" color="red">
        <route edges="2to14 14to1 1to15 15to6 6to7"/>
    </vehicle>
    <vehicle id="type4.4" depart="1.44" departLane="best" color="yellow">
        <route edges="7to6 6to15 15to1 1to14 14to2"/>
    </vehicle>
    <vehicle id="type0.5" depart="1.80" departLane="best" color="red">
        <route edges="2to14 14to1 1to15 15to6 6to7"/>
    </vehicle>
    <vehicle id="type4.5" depart="1.80" departLane="best" color="yellow">
        <route edges="7to6 6to15 15to1 1to4 4to5"/>
    </vehicle>
    <vehicle id="type0.6" depart="2.16" departLane="best" color="red">
        <route edges="2to14 14to1 1to17 17to3"/>
    </vehicle>
    <vehicle id="type4.6" depart="2.16" departLane="best" color="yellow">
        <route edges="7to6 6to15 15to1 1to17 17to3"/>
    </vehicle>
    <vehicle id="type0.7" depart="2.52" departLane="best" color="red">
        <route edges="2to14 14to1 1to4 4to5"/>
    </vehicle>
    <vehicle id="type4.7" depart="2.52" departLane="best" color="yellow">
        <route edges="7to6 6to15 15to1 1to4 4to5"/>
    </vehicle>
    <vehicle id="type0.8" depart="2.88" departLane="best" color="red">
        <route edges="2to14 14to1 1to15 15to6 6to7"/>
    </vehicle>
    <vehicle id="type4.8" depart="2.88" departLane="best" color="yellow">
        <route edges="7to6 6to15 15to1 1to14 14to2"/>
    </vehicle>
    <vehicle id="type0.9" depart="3.24" departLane="best" color="red">
        <route edges="2to14 14to1 1to15 15to6 6to7"/>
    </vehicle>
    <vehicle id="type4.9" depart="3.24" departLane="best" color="yellow">
        <route edges="7to6 6to15 15to1 1to14 14to2"/>
    </vehicle>
    <vehicle id="type0.10" depart="3.60" departLane="best" color="red">
        <route edges="2to14 14to1 1to15 15to6 6to7"/>
    </vehicle>
    <vehicle id="type1.1" depart="3.60" departLane="best" color="green">
        <route edges="5to4 4to1 1to17 17to3"/>
    </vehicle>
    <vehicle id="type2.1" depart="3.60" departLane="best" color="blue">
        <route edges="3to17 17to1 1to4 4to5"/>
    </vehicle>
    <vehicle id="type4.10" depart="3.60" departLane="best" color="yellow">
        <route edges="7to6 6to15 15to1 1to14 14to2"/>
    </vehicle>
    <vehicle id="type0.11" depart="3.96" departLane="best" color="red">
        <route edges="2to14 14to1 1to15 15to6 6to7"/>
    </vehicle>
    <vehicle id="type4.11" depart="3.96" departLane="best" color="yellow">
        <route edges="7to6 6to15 15to1 1to14 14to2"/>
    </vehicle>
    <vehicle id="type0.12" depart="4.32" departLane="best" color="red">
        <route edges="2to14 14to1 1to15 15to6 6to7"/>
    </vehicle>
    <vehicle id="type4.12" depart="4.32" departLane="best" color="yellow">
        <route edges="7to6 6to15 15to1 1to14 14to2"/>
    </vehicle>
    <vehicle id="type0.13" depart="4.68" departLane="best" color="red">
        <route edges="2to14 14to1 1to15 15to6 6to7"/>
    </vehicle>
    <vehicle id="type4.13" depart="4.68" departLane="best" color="yellow">
        <route edges="7to6 6to15 15to1 1to14 14to2"/>
    </vehicle>
    <vehicle id="type0.14" depart="5.04" departLane="best" color="red">
        <route edges="2to14 14to1 1to15 15to6 6to7"/>
    </vehicle>
    <vehicle id="type4.14" depart="5.04" departLane="best" color="yellow">
        <route edges="7to6 6to15 15to1 1to14 14to2"/>
    </vehicle>
    <vehicle id="type0.15" depart="5.40" departLane="best" color="red">
        <route edges="2to14 14to1 1to15 15to6 6to7"/>
    </vehicle>
    <vehicle id="type4.15" depart="5.40" departLane="best" color="yellow">
        <route edges="7to6 6to15 15to1 1to14 14to2"/>
    </vehicle>
    <vehicle id="type0.16" depart="5.76" departLane="best" color="red">
        <route edges="2to14 14to1 1to15 15to6 6to7"/>
    </vehicle>
    <vehicle id="type4.16" depart="5.76" departLane="best" color="yellow">
        <route edges="7to6 6to15 15to1 1to14 14to2"/>
    </vehicle>
    <vehicle id="type0.17" depart="6.12" departLane="best" color="red">
        <route edges="2to14 14to1 1to15 15to6 6to7"/>
    </vehicle>
    <vehicle id="type4.17" depart="6.12" departLane="best" color="yellow">
        <route edges="7to6 6to15 15to1 1to14 14to2"/>
    </vehicle>
    <vehicle id="type0.18" depart="6.48" departLane="best" color="red">
        <route edges="2to14 14to1 1to15 15to6 6to7"/>
    </vehicle>
    <vehicle id="type4.18" depart="6.48" departLane="best" color="yellow">
        <route edges="7to6 6to15 15to1 1to14 14to2"/>
    </vehicle>
    <vehicle id="type0.19" depart="6.84" departLane="best" color="red">
        <route edges="2to14 14to1 1to15 15to6 6to7"/>
    </vehicle>
    <vehicle id="type4.19" depart="6.84" departLane="best" color="yellow">
        <route edges="7to6 6to15 15to1 1to14 14to2"/>
    </vehicle>
    <vehicle id="type0.20" depart="7.20" departLane="best" color="red">
        <route edges="2to14 14to1 1to15 15to6 6to7"/>
    </vehicle>
    <vehicle id="type1.2" depart="7.20" departLane="best" color="green">
        <route edges="5to4 4to1 1to15 15to6 6to7"/>
    </vehicle>
    <vehicle id="type2.2" depart="7.20" departLane="best" color="blue">
        <route edges="3to17 17to1 1to4 4to5"/>
    </vehicle>
    <vehicle id="type4.20" depart="7.20" departLane="best" color="yellow">
        <route edges="7to6 6to15 15to1 1to14 14to2"/>
    </vehicle>
    <vehicle id="type0.21" depart="7.56" departLane="best" color="red">
        <route edges="2to14 14to1 1to15 15to6 6to7"/>
    </vehicle>
    <vehicle id="type4.21" depart="7.56" departLane="best" color="yellow">
        <route edges="7to6 6to15 15to1 1to14 14to2"/>
    </vehicle>
    <vehicle id="type0.22" depart="7.92" departLane="best" color="red">
        <route edges="2to14 14to1 1to15 15to6 6to7"/>
    </vehicle>
    <vehicle id="type4.22" depart="7.92" departLane="best" color="yellow">
        <route edges="7to6 6to15 15to1 1to14 14to2"/>
    </vehicle>
    <vehicle id="type0.23" depart="8.28" departLane="best" color="red">
        <route edges="2to14 14to1 1to15 15to6 6to7"/>
    </vehicle>
    <vehicle id="type4.23" depart="8.28" departLane="best" color="yellow">
        <route edges="7to6 6to15 15to1 1to14 14to2"/>
    </vehicle>
    <vehicle id="type0.24" depart="8.64" departLane="best" color="red">
        <route edges="2to14 14to1 1to4 4to5"/>
    </vehicle>
    <vehicle id="type4.24" depart="8.64" departLane="best" color="yellow">
        <route edges="7to6 6to15 15to1 1to14 14to2"/>
    </vehicle>
    <vehicle id="type0.25" depart="9.00" departLane="best" color="red">
        <route edges="2to14 14to1 1to17 17to3"/>
    </vehicle>
    <vehicle id="type4.25" depart="9.00" departLane="best" color="yellow">
        <route edges="7to6 6to15 15to1 1to14 14to2"/>
    </vehicle>
    <vehicle id="type0.26" depart="9.36" departLane="best" color="red">
        <route edges="2to14 14to1 1to17 17to3"/>
    </vehicle>
    <vehicle id="type4.26" depart="9.36" departLane="best" color="yellow">
        <route edges="7to6 6to15 15to1 1to14 14to2"/>
    </vehicle>
    <vehicle id="type0.27" depart="9.72" departLane="best" color="red">
        <route edges="2to14 14to1 1to15 15to6 6to7"/>
    </vehicle>
    <vehicle id="type4.27" depart="9.72" departLane="best" color="yellow">
        <route edges="7to6 6to15 15to1 1to14 14to2"/>
    </vehicle>
    <vehicle id="type0.28" depart="10.08" departLane="best" color="red">
        <route edges="2to14 14to1 1to4 4to5"/>
    </vehicle>
    <vehicle id="type4.28" depart="10.08" departLane="best" color="yellow">
        <route edges="7to6 6to15 15to1 1to14 14to2"/>
    </vehicle>
    <vehicle id="type0.29" depart="10.44" departLane="best" color="red">
        <route edges="2to14 14to1 1to15 15to6 6to7"/>
    </vehicle>
    <vehicle id="type4.29" depart="10.44" departLane="best" color="yellow">
        <route edges="7to6 6to15 15to1 1to14 14to2"/>
    </vehicle>
    <vehicle id="type0.30" depart="10.80" departLane="best" color="red">
        <route edges="2to14 14to1 1to15 15to6 6to7"/>
    </vehicle>
    <vehicle id="type1.3" depart="10.80" departLane="best" color="green">
        <route edges="5to4 4to1 1to17 17to3"/>
    </vehicle>
    <vehicle id="type2.3" depart="10.80" departLane="best" color="blue">
        <route edges="3to17 17to1 1to4 4to5"/>
    </vehicle>
    <vehicle id="type4.30" depart="10.80" departLane="best" color="yellow">
        <route edges="7to6 6to15 15to1 1to17 17to3"/>
    </vehicle>
    <vehicle id="type0.31" depart="11.16" departLane="best" color="red">
        <route edges="2to14 14to1 1to17 17to3"/>
    </vehicle>
    <vehicle id="type4.31" depart="11.16" departLane="best" color="yellow">
        <route edges="7to6 6to15 15to1 1to17 17to3"/>
    </vehicle>
    <vehicle id="type0.32" depart="11.52" departLane="best" color="red">
        <route edges="2to14 14to1 1to17 17to3"/>
    </vehicle>
    <vehicle id="type4.32" depart="11.52" departLane="best" color="yellow">
        <route edges="7to6 6to15 15to1 1to14 14to2"/>
    </vehicle>
    <vehicle id="type0.33" depart="11.88" departLane="best" color="red">
        <route edges="2to14 14to1 1to15 15to6 6to7"/>
    </vehicle>
    <vehicle id="type4.33" depart="11.88" departLane="best" color="yellow">
        <route edges="7to6 6to15 15to1 1to4 4to5"/>
    </vehicle>
    <vehicle id="type0.34" depart="12.24" departLane="best" color="red">
        <route edges="2to14 14to1 1to15 15to6 6to7"/>
    </vehicle>
    <vehicle id="type4.34" depart="12.24" departLane="best" color="yellow">
        <route edges="7to6 6to15 15to1 1to17 17to3"/>
    </vehicle>
    <vehicle id="type0.35" depart="12.60" departLane="best" color="red">
        <route edges="2to14 14to1 1to15 15to6 6to7"/>
    </vehicle>
    <vehicle id="type4.35" depart="12.60" departLane="best" color="yellow">
        <route edges="7to6 6to15 15to1 1to14 14to2"/>
    </vehicle>
    <vehicle id="type0.36" depart="12.96" departLane="best" color="red">
        <route edges="2to14 14to1 1to15 15to6 6to7"/>
    </vehicle>
    <vehicle id="type4.36" depart="12.96" departLane="best" color="yellow">
        <route edges="7to6 6to15 15to1 1to14 14to2"/>
    </vehicle>
    <vehicle id="type0.37" depart="13.32" departLane="best" color="red">
        <route edges="2to14 14to1 1to17 17to3"/>
    </vehicle>
    <vehicle id="type4.37" depart="13.32" departLane="best" color="yellow">
        <route edges="7to6 6to15 15to1 1to14 14to2"/>
    </vehicle>
    <vehicle id="type0.38" depart="13.68" departLane="best" color="red">
        <route edges="2to14 14to1 1to15 15to6 6to7"/>
    </vehicle>
    <vehicle id="type4.38" depart="13.68" departLane="best" color="yellow">
        <route edges="7to6 6to15 15to1 1to14 14to2"/>
    </vehicle>
    <vehicle id="type0.39" depart="14.04" departLane="best" color="red">
        <route edges="2to14 14to1 1to15 15to6 6to7"/>
    </vehicle>
    <vehicle id="type4.39" depart="14.04" departLane="best" color="yellow">
        <route edges="7to6 6to15 15to1 1to14 14to2"/>
    </vehicle>
    <vehicle id="type0.40" depart="14.40" departLane="best" color="red">
        <route edges="2to14 14to1 1to15 15to6 6to7"/>
    </vehicle>
    <vehicle id="type1.4" depart="14.40" departLane="best" color="green">
        <route edges="5to4 4to1 1to17 17to3"/>
    </vehicle>
    <vehicle id="type2.4" depart="14.40" departLane="best" color="blue">
        <route edges="3to17 17to1 1to4 4to5"/>
    </vehicle>
    <vehicle id="type4.40" depart="14.40" departLane="best" color="yellow">
        <route edges="7to6 6to15 15to1 1to4 4to5"/>
    </vehicle>
    <vehicle id="type0.41" depart="14.76" departLane="best" color="red">
        <route edges="2to14 14to1 1to15 15to6 6to7"/>
    </vehicle>
    <vehicle id="type4.41" depart="14.76" departLane="best" color="yellow">
        <route edges="7to6 6to15 15to1 1to4 4to5"/>
    </vehicle>
    <vehicle id="type0.42" depart="15.12" departLane="best" color="red">
        <route edges="2to14 14to1 1to15 15to6 6to7"/>
    </vehicle>
    <vehicle id="type4.42" depart="15.12" departLane="best" color="yellow">
        <route edges="7to6 6to15 15to1 1to17 17to3"/>
    </vehicle>
    <vehicle id="type0.43" depart="15.48" departLane="best" color="red">
        <route edges="2to14 14to1 1to15 15to6 6to7"/>
    </vehicle>
    <vehicle id="type4.43" depart="15.48" departLane="best" color="yellow">
        <route edges="7to6 6to15 15to1 1to4 4to5"/>
    </vehicle>
    <vehicle id="type0.44" depart="15.84" departLane="best" color="red">
        <route edges="2to14 14to1 1to17 17to3"/>
    </vehicle>
    <vehicle id="type4.44" depart="15.84" departLane="best" color="yellow">
        <route edges="7to6 6to15 15to1 1to4 4to5"/>
    </vehicle>
    <vehicle id="type0.45" depart="16.20" departLane="best" color="red">
        <route edges="2to14 14to1 1to15 15to6 6to7"/>
    </vehicle>
    <vehicle id="type4.45" depart="16.20" departLane="best" color="yellow">
        <route edges="7to6 6to15 15to1 1to14 14to2"/>
    </vehicle>
    <vehicle id="type0.46" depart="16.56" departLane="best" color="red">
        <route edges="2to14 14to1 1to15 15to6 6to7"/>
    </vehicle>
    <vehicle id="type4.46" depart="16.56" departLane="best" color="yellow">
        <route edges="7to6 6to15 15to1 1to14 14to2"/>
    </vehicle>
    <vehicle id="type0.47" depart="16.92" departLane="best" color="red">
        <route edges="2to14 14to1 1to15 15to6 6to7"/>
    </vehicle>
    <vehicle id="type4.47" depart="16.92" departLane="best" color="yellow">
        <route edges="7to6 6to15 15to1 1to17 17to3"/>
    </vehicle>
    <vehicle id="type0.48" depart="17.28" departLane="best" color="red">
        <route edges="2to14 14to1 1to15 15to6 6to7"/>
    </vehicle>
    <vehicle id="type4.48" depart="17.28" departLane="best" color="yellow">
        <route edges="7to6 6to15 15to1 1to14 14to2"/>
    </vehicle>
    <vehicle id="type0.49" depart="17.64" departLane="best" color="red">
        <route edges="2to14 14to1 1to15 15to6 6to7"/>
    </vehicle>
    <vehicle id="type4.49" depart="17.64" departLane="best" color="yellow">
        <route edges="7to6 6to15 15to1 1to14 14to2"/>
    </vehicle>
    <vehicle id="type0.50" depart="18.00" departLane="best" color="red">
        <route edges="2to14 14to1 1to15 15to6 6to7"/>
    </vehicle>
    <vehicle id="type1.5" depart="18.00" departLane="best" color="green">
        <route edges="5to4 4to1 1to15 15to6 6to7"/>
    </vehicle>
    <vehicle id="type2.5" depart="18.00" departLane="best" color="blue">
        <route edges="3to17 17to1 1to4 4to5"/>
    </vehicle>
    <vehicle id="type4.50" depart="18.00" departLane="best" color="yellow">
        <route edges="7to6 6to15 15to1 1to14 14to2"/>
    </vehicle>
    <vehicle id="type0.51" depart="18.36" departLane="best" color="red">
        <route edges="2to14 14to1 1to15 15to6 6to7"/>
    </vehicle>
    <vehicle id="type4.51" depart="18.36" departLane="best" color="yellow">
        <route edges="7to6 6to15 15to1 1to4 4to5"/>
    </vehicle>
    <vehicle id="type0.52" depart="18.72" departLane="best" color="red">
        <route edges="2to14 14to1 1to15 15to6 6to7"/>
    </vehicle>
    <vehicle id="type4.52" depart="18.72" departLane="best" color="yellow">
        <route edges="7to6 6to15 15to1 1to14 14to2"/>
    </vehicle>
    <vehicle id="type0.53" depart="19.08" departLane="best" color="red">
        <route edges="2to14 14to1 1to15 15to6 6to7"/>
    </vehicle>
    <vehicle id="type4.53" depart="19.08" departLane="best" color="yellow">
        <route edges="7to6 6to15 15to1 1to14 14to2"/>
    </vehicle>
    <vehicle id="type0.54" depart="19.44" departLane="best" color="red">
        <route edges="2to14 14to1 1to15 15to6 6to7"/>
    </vehicle>
    <vehicle id="type4.54" depart="19.44" departLane="best" color="yellow">
        <route edges="7to6 6to15 15to1 1to4 4to5"/>
    </vehicle>
    <vehicle id="type0.55" depart="19.80" departLane="best" color="red">
        <route edges="2to14 14to1 1to15 15to6 6to7"/>
    </vehicle>
    <vehicle id="type4.55" depart="19.80" departLane="best" color="yellow">
        <route edges="7to6 6to15 15to1 1to14 14to2"/>
    </vehicle>
    <vehicle id="type0.56" depart="20.16" departLane="best" color="red">
        <route edges="2to14 14to1 1to15 15to6 6to7"/>
    </vehicle>
    <vehicle id="type4.56" depart="20.16" departLane="best" color="yellow">
        <route edges="7to6 6to15 15to1 1to4 4to5"/>
    </vehicle>
    <vehicle id="type0.57" depart="20.52" departLane="best" color="red">
        <route edges="2to14 14to1 1to15 15to6 6to7"/>
    </vehicle>
    <vehicle id="type4.57" depart="20.52" departLane="best" color="yellow">
        <route edges="7to6 6to15 15to1 1to14 14to2"/>
    </vehicle>
    <vehicle id="type0.58" depart="20.88" departLane="best" color="red">
        <route edges="2to14 14to1 1to15 15to6 6to7"/>
    </vehicle>
    <vehicle id="type4.58" depart="20.88" departLane="best" color="yellow">
        <route edges="7to6 6to15 15to1 1to14 14to2"/>
    </vehicle>
    <vehicle id="type0.59" depart="21.24" departLane="best" color="red">
        <route edges="2to14 14to1 1to15 15to6 6to7"/>
    </vehicle>
    <vehicle id="type4.59" depart="21.24" departLane="best" color="yellow">
        <route edges="7to6 6to15 15to1 1to14 14to2"/>
    </vehicle>
    <vehicle id="type0.60" depart="21.60" departLane="best" color="red">
        <route edges="2to14 14to1 1to15 15to6 6to7"/>
    </vehicle>
    <vehicle id="type1.6" depart="21.60" departLane="best" color="green">
        <route edges="5to4 4to1 1to17 17to3"/>
    </vehicle>
    <vehicle id="type2.6" depart="21.60" departLane="best" color="blue">
        <route edges="3to17 17to1 1to4 4to5"/>
    </vehicle>
    <vehicle id="type4.60" depart="21.60" departLane="best" color="yellow">
        <route edges="7to6 6to15 15to1 1to14 14to2"/>
    </vehicle>
    <vehicle id="type0.61" depart="21.96" departLane="best" color="red">
        <route edges="2to14 14to1 1to15 15to6 6to7"/>
    </vehicle>
    <vehicle id="type4.61" depart="21.96" departLane="best" color="yellow">
        <route edges="7to6 6to15 15to1 1to14 14to2"/>
    </vehicle>
    <vehicle id="type0.62" depart="22.32" departLane="best" color="red">
        <route edges="2to14 14to1 1to15 15to6 6to7"/>
    </vehicle>
    <vehicle id="type4.62" depart="22.32" departLane="best" color="yellow">
        <route edges="7to6 6to15 15to1 1to14 14to2"/>
    </vehicle>
    <vehicle id="type0.63" depart="22.68" departLane="best" color="red">
        <route edges="2to14 14to1 1to17 17to3"/>
    </vehicle>
    <vehicle id="type4.63" depart="22.68" departLane="best" color="yellow">
        <route edges="7to6 6to15 15to1 1to14 14to2"/>
    </vehicle>
    <vehicle id="type0.64" depart="23.04" departLane="best" color="red">
        <route edges="2to14 14to1 1to15 15to6 6to7"/>
    </vehicle>
    <vehicle id="type4.64" depart="23.04" departLane="best" color="yellow">
        <route edges="7to6 6to15 15to1 1to4 4to5"/>
    </vehicle>
    <vehicle id="type0.65" depart="23.40" departLane="best" color="red">
        <route edges="2to14 14to1 1to4 4to5"/>
    </vehicle>
    <vehicle id="type4.65" depart="23.40" departLane="best" color="yellow">
        <route edges="7to6 6to15 15to1 1to14 14to2"/>
    </vehicle>
    <vehicle id="type0.66" depart="23.76" departLane="best" color="red">
        <route edges="2to14 14to1 1to15 15to6 6to7"/>
    </vehicle>
    <vehicle id="type4.66" depart="23.76" departLane="best" color="yellow">
        <route edges="7to6 6to15 15to1 1to14 14to2"/>
    </vehicle>
    <vehicle id="type0.67" depart="24.12" departLane="best" color="red">
        <route edges="2to14 14to1 1to15 15to6 6to7"/>
    </vehicle>
    <vehicle id="type4.67" depart="24.12" departLane="best" color="yellow">
        <route edges="7to6 6to15 15to1 1to14 14to2"/>
    </vehicle>
    <vehicle id="type0.68" depart="24.48" departLane="best" color="red">
        <route edges="2to14 14to1 1to15 15to6 6to7"/>
    </vehicle>
    <vehicle id="type4.68" depart="24.48" departLane="best" color="yellow">
        <route edges="7to6 6to15 15to1 1to14 14to2"/>
    </vehicle>
    <vehicle id="type0.69" depart="24.84" departLane="best" color="red">
        <route edges="2to14 14to1 1to15 15to6 6to7"/>
    </vehicle>
    <vehicle id="type4.69" depart="24.84" departLane="best" color="yellow">
        <route edges="7to6 6to15 15to1 1to14 14to2"/>
    </vehicle>
    <vehicle id="type0.70" depart="25.20" departLane="best" color="red">
        <route edges="2to14 14to1 1to15 15to6 6to7"/>
    </vehicle>
    <vehicle id="type1.7" depart="25.20" departLane="best" color="green">
        <route edges="5to4 4to1 1to17 17to3"/>
    </vehicle>
    <vehicle id="type2.7" depart="25.20" departLane="best" color="blue">
        <route edges="3to17 17to1 1to15 15to6 6to7"/>
    </vehicle>
    <vehicle id="type4.70" depart="25.20" departLane="best" color="yellow">
        <route edges="7to6 6to15 15to1 1to14 14to2"/>
    </vehicle>
    <vehicle id="type0.71" depart="25.56" departLane="best" color="red">
        <route edges="2to14 14to1 1to4 4to5"/>
    </vehicle>
    <vehicle id="type4.71" depart="25.56" departLane="best" color="yellow">
        <route edges="7to6 6to15 15to1 1to14 14to2"/>
    </vehicle>
    <vehicle id="type0.72" depart="25.92" departLane="best" color="red">
        <route edges="2to14 14to1 1to4 4to5"/>
    </vehicle>
    <vehicle id="type4.72" depart="25.92" departLane="best" color="yellow">
        <route edges="7to6 6to15 15to1 1to14 14to2"/>
    </vehicle>
    <vehicle id="type0.73" depart="26.28" departLane="best" color="red">
        <route edges="2to14 14to1 1to15 15to6 6to7"/>
    </vehicle>
    <vehicle id="type4.73" depart="26.28" departLane="best" color="yellow">
        <route edges="7to6 6to15 15to1 1to14 14to2"/>
    </vehicle>
    <vehicle id="type0.74" depart="26.64" departLane="best" color="red">
        <route edges="2to14 14to1 1to15 15to6 6to7"/>
    </vehicle>
    <vehicle id="type4.74" depart="26.64" departLane="best" color="yellow">
        <route edges="7to6 6to15 15to1 1to17 17to3"/>
    </vehicle>
    <vehicle id="type0.75" depart="27.00" departLane="best" color="red">
        <route edges="2to14 14to1 1to4 4to5"/>
    </vehicle>
    <vehicle id="type4.75" depart="27.00" departLane="best" color="yellow">
        <route edges="7to6 6to15 15to1 1to14 14to2"/>
    </vehicle>
    <vehicle id="type0.76" depart="27.36" departLane="best" color="red">
        <route edges="2to14 14to1 1to15 15to6 6to7"/>
    </vehicle>
    <vehicle id="type4.76" depart="27.36" departLane="best" color="yellow">
        <route edges="7to6 6to15 15to1 1to14 14to2"/>
    </vehicle>
    <vehicle id="type0.77" depart="27.72" departLane="best" color="red">
        <route edges="2to14 14to1 1to15 15to6 6to7"/>
    </vehicle>
    <vehicle id="type4.77" depart="27.72" departLane="best" color="yellow">
        <route edges="7to6 6to15 15to1 1to14 14to2"/>
    </vehicle>
    <vehicle id="type0.78" depart="28.08" departLane="best" color="red">
        <route edges="2to14 14to1 1to15 15to6 6to7"/>
    </vehicle>
    <vehicle id="type4.78" depart="28.08" departLane="best" color="yellow">
        <route edges="7to6 6to15 15to1 1to14 14to2"/>
    </vehicle>
    <vehicle id="type0.79" depart="28.44" departLane="best" color="red">
        <route edges="2to14 14to1 1to15 15to6 6to7"/>
    </vehicle>
    <vehicle id="type4.79" depart="28.44" departLane="best" color="yellow">
        <route edges="7to6 6to15 15to1 1to14 14to2"/>
    </vehicle>
    <vehicle id="type0.80" depart="28.80" departLane="best" color="red">
        <route edges="2to14 14to1 1to15 15to6 6to7"/>
    </vehicle>
    <vehicle id="type1.8" depart="28.80" departLane="best" color="green">
        <route edges="5to4 4to1 1to17 17to3"/>
    </vehicle>
    <vehicle id="type2.8" depart="28.80" departLane="best" color="blue">
        <route edges="3to17 17to1 1to4 4to5"/>
    </vehicle>
    <vehicle id="type4.80" depart="28.80" departLane="best" color="yellow">
        <route edges="7to6 6to15 15to1 1to4 4to5"/>
    </vehicle>
    <vehicle id="type0.81" depart="29.16" departLane="best" color="red">
        <route edges="2to14 14to1 1to15 15to6 6to7"/>
    </vehicle>
    <vehicle id="type4.81" depart="29.16" departLane="best" color="yellow">
        <route edges="7to6 6to15 15to1 1to14 14to2"/>
    </vehicle>
    <vehicle id="type0.82" depart="29.52" departLane="best" color="red">
        <route edges="2to14 14to1 1to15 15to6 6to7"/>
    </vehicle>
    <vehicle id="type4.82" depart="29.52" departLane="best" color="yellow">
        <route edges="7to6 6to15 15to1 1to14 14to2"/>
    </vehicle>
    <vehicle id="type0.83" depart="29.88" departLane="best" color="red">
        <route edges="2to14 14to1 1to4 4to5"/>
    </vehicle>
    <vehicle id="type4.83" depart="29.88" departLane="best" color="yellow">
        <route edges="7to6 6to15 15to1 1to14 14to2"/>
    </vehicle>
    <vehicle id="type0.84" depart="30.24" departLane="best" color="red">
        <route edges="2to14 14to1 1to15 15to6 6to7"/>
    </vehicle>
    <vehicle id="type4.84" depart="30.24" departLane="best" color="yellow">
        <route edges="7to6 6to15 15to1 1to17 17to3"/>
    </vehicle>
    <vehicle id="type0.85" depart="30.60" departLane="best" color="red">
        <route edges="2to14 14to1 1to15 15to6 6to7"/>
    </vehicle>
    <vehicle id="type4.85" depart="30.60" departLane="best" color="yellow">
        <route edges="7to6 6to15 15to1 1to4 4to5"/>
    </vehicle>
    <vehicle id="type0.86" depart="30.96" departLane="best" color="red">
        <route edges="2to14 14to1 1to15 15to6 6to7"/>
    </vehicle>
    <vehicle id="type4.86" depart="30.96" departLane="best" color="yellow">
        <route edges="7to6 6to15 15to1 1to14 14to2"/>
    </vehicle>
    <vehicle id="type0.87" depart="31.32" departLane="best" color="red">
        <route edges="2to14 14to1 1to15 15to6 6to7"/>
    </vehicle>
    <vehicle id="type4.87" depart="31.32" departLane="best" color="yellow">
        <route edges="7to6 6to15 15to1 1to14 14to2"/>
    </vehicle>
    <vehicle id="type0.88" depart="31.68" departLane="best" color="red">
        <route edges="2to14 14to1 1to15 15to6 6to7"/>
    </vehicle>
    <vehicle id="type4.88" depart="31.68" departLane="best" color="yellow">
        <route edges="7to6 6to15 15to1 1to14 14to2"/>
    </vehicle>
    <vehicle id="type0.89" depart="32.04" departLane="best" color="red">
        <route edges="2to14 14to1 1to17 17to3"/>
    </vehicle>
    <vehicle id="type4.89" depart="32.04" departLane="best" color="yellow">
        <route edges="7to6 6to15 15to1 1to14 14to2"/>
    </vehicle>
    <vehicle id="type0.90" depart="32.40" departLane="best" color="red">
        <route edges="2to14 14to1 1to4 4to5"/>
    </vehicle>
    <vehicle id="type1.9" depart="32.40" departLane="best" color="green">
        <route edges="5to4 4to1 1to15 15to6 6to7"/>
    </vehicle>
    <vehicle id="type2.9" depart="32.40" departLane="best" color="blue">
        <route edges="3to17 17to1 1to4 4to5"/>
    </vehicle>
    <vehicle id="type4.90" depart="32.40" departLane="best" color="yellow">
        <route edges="7to6 6to15 15to1 1to14 14to2"/>
    </vehicle>
    <vehicle id="type0.91" depart="32.76" departLane="best" color="red">
        <route edges="2to14 14to1 1to15 15to6 6to7"/>
    </vehicle>
    <vehicle id="type4.91" depart="32.76" departLane="best" color="yellow">
        <route edges="7to6 6to15 15to1 1to14 14to2"/>
    </vehicle>
    <vehicle id="type0.92" depart="33.12" departLane="best" color="red">