<nodes>
    <node id="1" x="-193.5" y="-28.8" type="traffic_light" />
    <node id="2" x="-400" y="-155.11" />
	<node id="3" x="-191.5" y="-241.9" />
    <node id="4" x="-193.7" y="112" />
	<node id="5" x="-205" y="330.81" />
	<node id="6" x="-95.9" y="-3.3" />
    <node id="7" x="300.0" y="0.0" />
    <node id="8" x="-159.6" y="88.7" />
    <node id="9" x="-138.3" y="92.1" />
	<node id="10" x="-124.5" y="103.2" />
    <node id="11" x="-123.6" y="124.2" />
	<node id="12" x="-143" y="140.9" />
	<node id="13" x="-165.1" y="136.4" />
	<node id="14" x="-220" y="-38" /><!--<node id="14" x="-208.4" y="-34.5" />-->
    <node id="15" x="-170" y="-23" /><!--<node id="15" x="-176.2" y="-23" />-->
	<node id="17" x="-193.7" y="-67" /><!--<node id="17" x="-193.7" y="-46.6" />-->
	</nodes>