<?xml version="1.0" encoding="UTF-8"?>
<types>
	<type id="a" priority="3" numLanes="1" speed="14"/>
	<type id="b" priority="3" numLanes="2" speed="14"/>
	<type id="c" priority="3" numLanes="3" speed="14"/>
	<type id="d" priority="3" numLanes="4" speed="14"/>
	<type id="e" priority="3" numLanes="5" speed="14"/>
</types>