<nodes>
    <node id="1" x="-193.5" y="-28.8" type="traffic_light" />
    <node id="2" x="-283.1" y="-80" />
	<node id="3" x="-192.8" y="-126.5" />
    <node id="4" x="-193.7" y="112" />
	<node id="5" x="-199.2" y="218.5" />
	<node id="6" x="-95.9" y="-3.3" />
    <node id="7" x="0.0" y="0.0" />
    <node id="8" x="-159.6" y="88.7" />
    <node id="9" x="-138.3" y="92.1" />
	<node id="10" x="-124.5" y="103.2" />
    <node id="11" x="-123.6" y="124.2" />
	<node id="12" x="-143" y="140.9" />
	<node id="13" x="-165.1" y="136.4" />
	
	<!--old data
	<node id="1" x="-192.8" y="-28.8" />
	<node id="14" x="-203.8" y="-33.3" />
    <node id="15" x="-182.6" y="-24.4" />
	<node id="16" x="-192.8" y="-16.6" />
	<node id="17" x="-192.8" y="-42.2" />
	-->
	<!--newish data
	<node id="14" x="-208.4" y="-36.6" />
    <node id="15" x="-176.2" y="-21.1" />
	<node id="16" x="-191.8" y="-12.2" />
	<node id="17" x="-193.7" y="-46.6" />
	-->
	
	<node id="14" x="-208.4" y="-32" />
    <node id="15" x="-176.2" y="-25" />
	<node id="16" x="-191.8" y="-12.2" />
	<node id="17" x="-193.7" y="-46.6" />
	<!--new nodes-->
	<node id="18" x="1300.4" y="11.1" />
	<node id="19" x="1386.2" y="12.2" type="traffic_light"/>
	<node id="20" x="1383.4" y="-66.6" />
	<node id="21" x="1464.6" y="13.3" type="traffic_light"/>
	<node id="22" x="1463.6" y="-67.7" />
	<node id="23" x="1643.5" y="14.4" />
	<node id="24" x="1846.4" y="15.5" />
	<node id="25" x="1935.8" y="15.5" />
	<node id="26" x="2008.7" y="-7.8" />
	<node id="27" x="2062.2" y="-45.5" />
	<node id="28" x="2091.7" y="-78.8" />
	<node id="29" x="2186.7" y="-245.1" />
	<node id="30" x="2207" y="-278.4" type="traffic_light"/>
	<node id="31" x="2223.6" y="-309.5" />
	<node id="32" x="2233.7" y="-280.6" />
	<node id="33" x="2258.6" y="-291.7" />
	<node id="34" x="2256.8" y="-366" />
	<node id="35" x="2477.2" y="-742.1" />
	<node id="36" x="2514.1" y="-802" />
	<node id="37" x="2552.8" y="-853" />
	<node id="38" x="2592.5" y="-882.9" />
	<node id="39" x="2110.1" y="-113.1" />
	
	<!--new nodes-->
	<node id="40" x="2687.5" y="-911.8" type="traffic_light"/>
	<node id="41" x="2634.9" y="-929.5" />
	<node id="42" x="2785.2" y="-911.8" />
	<node id="43" x="2808.3" y="-910.7" type="traffic_light"/>
	<node id="44" x="2783.4" y="-942.8" />
	<node id="45" x="2829.5" y="-879.6" />
	<node id="46" x="3122.8" y="-906.2" />
	<node id="47" x="3156.9" y="-905.1" type="traffic_light"/>
	<node id="48" x="3156.9" y="-831.9" />
	<node id="49" x="3156.9" y="-986.1" />
	<node id="50" x="3194.7" y="-905.1" />
	<node id="51" x="3407.8" y="-902.9" />
	<node id="52" x="3445.6" y="-901.8" type="traffic_light"/>
	<node id="53" x="3443.7" y="-831.9" />
	<node id="54" x="3447.4" y="-952.8" />
	<node id="55" x="3484.3" y="-901.8" />
	<node id="56" x="3713" y="-898.5" />
	<node id="57" x="3763.7" y="-898.5" type="traffic_light"/>
	<node id="58" x="3761.9" y="-843" />
	<node id="59" x="3742.5" y="-790.9" />
	<node id="60" x="3761" y="-950.6" />
	<node id="61" x="3750.8" y="-993.9" />
	<node id="62" x="3838.5" y="-896.2" />
	<node id="63" x="3927" y="-895.1" />
	<node id="64" x="3962" y="-894" type="traffic_light"/>
	<node id="65" x="3960.2" y="-814.2" />
	<node id="66" x="3958.3" y="-929.5" />
	<node id="67" x="3998" y="-894" />
	
	<!--new nodes-->
	<node id="68" x="4130.8" y="-891.8" />
	<node id="69" x="4169.5" y="-892.9" type="traffic_light"/>
	<node id="70" x="4169.5" y="-831.9" />
	<node id="71" x="4171.4" y="-949.5" />
	<node id="72" x="4247.9" y="-889.6" />
	<node id="73" x="4335.5" y="-888.5" type="traffic_light"/>
	<node id="75" x="4332.8" y="-783.1" />
	<node id="76" x="4395.5" y="-886.3" />
	<node id="77" x="4350.3" y="-858.5" />
	<node id="78" x="4340.2" y="-831.9" />
	<node id="79" x="4346.6" y="-808.6" />
	<node id="80" x="4363.2" y="-793.1" />
	<node id="81" x="4582.7" y="-882.9" type="traffic_light"/>
	<node id="82" x="4580.9" y="-750.9" />
	<node id="83" x="4737.7" y="-882.9" />
	
	<!--	
	<node id="14" x="-203.8" y="-33.3" />
    <node id="15" x="-182.6" y="-24.4" />
	<node id="16" x="-192.8" y="-16.6" />
	<node id="17" x="-192.8" y="-42.2" />
	-->
	
</nodes>