<edges>
	<edge id="R1" from="1" to="2" type = "a" />

</edges>