<?xml version="1.0" encoding="UTF-8"?>

<!-- generated on 12/13/15 16:15:25 by SUMO netconvert Version 0.24.0
<?xml version="1.0" encoding="UTF-8"?>

<configuration xmlns:xsi="http://www.w3.org/2001/XMLSchema-instance" xsi:noNamespaceSchemaLocation="http://sumo.dlr.de/xsd/netconvertConfiguration.xsd">

    <input>
        <type-files value="C:\Users\Xavier\Desktop\sumo-win32-0.24.0\sumo-0.24.0/data/typemap/osmNetconvert.typ.xml"/>
        <osm-files value="map.osm"/>
    </input>

    <output>
        <output-file value="acton.net.xml"/>
    </output>

    <projection>
        <proj.utm value="true"/>
    </projection>

    <tls_building>
        <tls.discard-simple value="true"/>
        <tls.join value="true"/>
        <tls.guess-signals value="true"/>
    </tls_building>

    <ramp_guessing>
        <ramps.guess value="true"/>
    </ramp_guessing>

    <processing>
        <geometry.remove value="true"/>
        <roundabouts.guess value="true"/>
        <junctions.join value="true"/>
    </processing>

</configuration>
-->

<net version="0.13" xmlns:xsi="http://www.w3.org/2001/XMLSchema-instance" xsi:noNamespaceSchemaLocation="http://sumo.dlr.de/xsd/net_file.xsd">

    <location netOffset="-687230.95,-5709949.85" convBoundary="0.00,0.00,3632.83,1532.70" origBoundary="-0.301546,51.508706,-0.249223,51.522651" projParameter="+proj=utm +zone=30 +ellps=WGS84 +datum=WGS84 +units=m +no_defs"/>

    <type id="highway.bridleway" priority="1" numLanes="1" speed="2.78" allow="pedestrian" oneway="1" width="2.00"/>
    <type id="highway.bus_guideway" priority="1" numLanes="1" speed="8.33" allow="bus" oneway="1"/>
    <type id="highway.cycleway" priority="1" numLanes="1" speed="5.56" allow="bicycle" oneway="0" width="1.00"/>
    <type id="highway.footway" priority="1" numLanes="1" speed="8.33" allow="pedestrian" oneway="1" width="2.00"/>
    <type id="highway.ford" priority="1" numLanes="1" speed="2.78" allow="army" oneway="0"/>
    <type id="highway.living_street" priority="3" numLanes="1" speed="2.78" disallow="tram rail_urban rail rail_electric ship" oneway="0"/>
    <type id="highway.motorway" priority="13" numLanes="2" speed="44.44" allow="private emergency authority army vip passenger hov taxi bus coach delivery truck trailer motorcycle evehicle custom1 custom2" oneway="1"/>
    <type id="highway.motorway_link" priority="12" numLanes="1" speed="22.22" allow="private emergency authority army vip passenger hov taxi bus coach delivery truck trailer motorcycle evehicle custom1 custom2" oneway="1"/>
    <type id="highway.path" priority="1" numLanes="1" speed="2.78" allow="bicycle pedestrian" oneway="1" width="2.00"/>
    <type id="highway.pedestrian" priority="1" numLanes="1" speed="8.33" allow="pedestrian" oneway="1" width="2.00"/>
    <type id="highway.primary" priority="9" numLanes="2" speed="27.78" disallow="tram rail_urban rail rail_electric ship" oneway="0"/>
    <type id="highway.primary_link" priority="8" numLanes="1" speed="22.22" disallow="tram rail_urban rail rail_electric ship" oneway="0"/>
    <type id="highway.raceway" priority="14" numLanes="2" speed="83.33" allow="vip" oneway="0"/>
    <type id="highway.residential" priority="4" numLanes="1" speed="13.89" disallow="tram rail_urban rail rail_electric ship" oneway="0"/>
    <type id="highway.secondary" priority="7" numLanes="2" speed="27.78" disallow="tram rail_urban rail rail_electric ship" oneway="0"/>
    <type id="highway.secondary_link" priority="6" numLanes="1" speed="22.22" disallow="tram rail_urban rail rail_electric ship" oneway="0"/>
    <type id="highway.service" priority="2" numLanes="1" speed="5.56" allow="delivery bicycle pedestrian" oneway="0"/>
    <type id="highway.services" priority="1" numLanes="1" speed="8.33" disallow="tram rail_urban rail rail_electric ship" oneway="0"/>
    <type id="highway.stairs" priority="1" numLanes="1" speed="1.39" allow="pedestrian" oneway="1" width="2.00"/>
    <type id="highway.step" priority="1" numLanes="1" speed="1.39" allow="pedestrian" oneway="1" width="2.00"/>
    <type id="highway.steps" priority="1" numLanes="1" speed="1.39" allow="pedestrian" oneway="1" width="2.00"/>
    <type id="highway.tertiary" priority="6" numLanes="1" speed="22.22" disallow="tram rail_urban rail rail_electric ship" oneway="0"/>
    <type id="highway.tertiary_link" priority="5" numLanes="1" speed="22.22" disallow="tram rail_urban rail rail_electric ship" oneway="0"/>
    <type id="highway.track" priority="1" numLanes="1" speed="5.56" disallow="tram rail_urban rail rail_electric ship" oneway="0"/>
    <type id="highway.trunk" priority="11" numLanes="2" speed="27.78" disallow="tram rail_urban rail rail_electric bicycle pedestrian ship" oneway="0"/>
    <type id="highway.trunk_link" priority="10" numLanes="1" speed="22.22" disallow="tram rail_urban rail rail_electric bicycle pedestrian ship" oneway="0"/>
    <type id="highway.unclassified" priority="5" numLanes="1" speed="13.89" disallow="tram rail_urban rail rail_electric ship" oneway="0"/>
    <type id="highway.unsurfaced" priority="1" numLanes="1" speed="8.33" disallow="tram rail_urban rail rail_electric ship" oneway="0"/>
    <type id="railway.light_rail" priority="15" numLanes="1" speed="27.78" allow="rail_urban" oneway="1"/>
    <type id="railway.preserved" priority="15" numLanes="1" speed="27.78" allow="rail" oneway="1"/>
    <type id="railway.rail" priority="15" numLanes="1" speed="83.33" allow="rail rail_electric" oneway="1"/>
    <type id="railway.subway" priority="15" numLanes="1" speed="27.78" allow="rail_urban" oneway="1"/>
    <type id="railway.tram" priority="15" numLanes="1" speed="13.89" allow="tram" oneway="1"/>

    <edge id=":1143685_0" function="internal">
        <lane id=":1143685_0_0" index="0" allow="rail rail_electric" speed="83.33" length="4.82" shape="3169.45,1360.37 3169.99,1361.76 3169.86,1362.67 3169.04,1363.11 3167.56,1363.07"/>
    </edge>
    <edge id=":1143783_0" function="internal">
        <lane id=":1143783_0_0" index="0" allow="rail rail_electric" speed="83.33" length="3.04" shape="2558.93,996.14 2556.11,995.00"/>
    </edge>
    <edge id=":1143783_1" function="internal">
        <lane id=":1143783_1_0" index="0" allow="rail rail_electric" speed="83.33" length="12.14" shape="2558.93,996.14 2563.16,997.82 2564.68,998.18 2563.51,997.20 2559.64,994.90"/>
    </edge>
    <edge id=":1143783_2" function="internal">
        <lane id=":1143783_2_0" index="0" allow="rail rail_electric" speed="83.33" length="2.56" shape="2558.93,996.14 2558.03,994.95 2557.92,994.04 2558.02,993.94"/>
    </edge>
    <edge id=":1143783_6" function="internal">
        <lane id=":1143783_6_0" index="0" speed="83.33" length="2.27" shape="2558.02,993.94 2558.58,993.39 2560.02,993.02"/>
    </edge>
    <edge id=":1143783_3" function="internal">
        <lane id=":1143783_3_0" index="0" allow="rail rail_electric" speed="83.33" length="2.93" shape="2557.31,991.92 2560.02,993.02"/>
    </edge>
    <edge id=":1143783_4" function="internal">
        <lane id=":1143783_4_0" index="0" allow="rail rail_electric" speed="83.33" length="3.78" shape="2557.31,991.92 2559.64,994.90"/>
    </edge>
    <edge id=":1143783_5" function="internal">
        <lane id=":1143783_5_0" index="0" allow="rail rail_electric" speed="83.33" length="2.41" shape="2557.31,991.92 2558.16,993.14 2558.25,994.06"/>
    </edge>
    <edge id=":1143783_7" function="internal">
        <lane id=":1143783_7_0" index="0" speed="83.33" length="2.41" shape="2558.25,994.06 2557.57,994.68 2556.11,995.00"/>
    </edge>
    <edge id=":1245972860_0" function="internal">
        <lane id=":1245972860_0_0" index="0" disallow="tram rail_urban rail rail_electric ship" speed="13.41" length="4.82" shape="2086.45,166.11 2086.65,164.63 2087.21,163.90 2088.14,163.92 2089.42,164.67"/>
    </edge>
    <edge id=":1445773677_0" function="internal">
        <lane id=":1445773677_0_0" index="0" allow="rail rail_electric" speed="83.33" length="2.78" shape="2493.46,970.73 2490.87,969.73"/>
    </edge>
    <edge id=":1445773677_1" function="internal">
        <lane id=":1445773677_1_0" index="0" allow="rail rail_electric" speed="83.33" length="2.41" shape="2493.46,970.73 2492.61,969.51 2492.52,968.59"/>
    </edge>
    <edge id=":1445773677_6" function="internal">
        <lane id=":1445773677_6_0" index="0" speed="83.33" length="2.41" shape="2492.52,968.59 2493.20,967.97 2494.65,967.65"/>
    </edge>
    <edge id=":1445773677_2" function="internal">
        <lane id=":1445773677_2_0" index="0" allow="rail rail_electric" speed="83.33" length="2.79" shape="2492.05,966.65 2494.65,967.65"/>
    </edge>
    <edge id=":1445773677_3" function="internal">
        <lane id=":1445773677_3_0" index="0" allow="rail rail_electric" speed="83.33" length="2.41" shape="2492.05,966.65 2492.91,967.86 2493.00,968.78"/>
    </edge>
    <edge id=":1445773677_7" function="internal">
        <lane id=":1445773677_7_0" index="0" speed="83.33" length="2.41" shape="2493.00,968.78 2492.32,969.40 2490.87,969.73"/>
    </edge>
    <edge id=":1445773677_4" function="internal">
        <lane id=":1445773677_4_0" index="0" allow="rail rail_electric" speed="83.33" length="3.19" shape="2491.49,968.11 2494.65,967.65"/>
    </edge>
    <edge id=":1445773677_5" function="internal">
        <lane id=":1445773677_5_0" index="0" allow="rail rail_electric" speed="83.33" length="26.57" shape="2491.49,968.11 2500.50,972.36 2503.40,974.05 2500.19,973.17 2490.87,969.73"/>
    </edge>
    <edge id=":1445773678_0" function="internal">
        <lane id=":1445773678_0_0" index="0" allow="rail rail_electric" speed="83.33" length="2.67" shape="2613.00,1022.89 2615.43,1023.98"/>
    </edge>
    <edge id=":1445773678_1" function="internal">
        <lane id=":1445773678_1_0" index="0" allow="rail rail_electric" speed="83.33" length="2.66" shape="2613.00,1022.89 2615.37,1024.10"/>
    </edge>
    <edge id=":1445773680_0" function="internal">
        <lane id=":1445773680_0_0" index="0" allow="rail rail_electric" speed="83.33" length="2.71" shape="2642.63,1041.32 2640.18,1040.14"/>
    </edge>
    <edge id=":1445773680_1" function="internal">
        <lane id=":1445773680_1_0" index="0" allow="rail rail_electric" speed="83.33" length="1.49" shape="2642.63,1041.32 2641.92,1040.01"/>
    </edge>
    <edge id=":1445773680_6" function="internal">
        <lane id=":1445773680_6_0" index="0" speed="83.33" length="3.33" shape="2641.92,1040.01 2641.94,1039.09 2642.69,1038.55 2644.17,1038.40"/>
    </edge>
    <edge id=":1445773680_2" function="internal">
        <lane id=":1445773680_2_0" index="0" allow="rail rail_electric" speed="83.33" length="2.97" shape="2641.49,1037.11 2644.17,1038.40"/>
    </edge>
    <edge id=":1445773680_3" function="internal">
        <lane id=":1445773680_3_0" index="0" allow="rail rail_electric" speed="83.33" length="4.82" shape="2641.49,1037.11 2642.30,1038.36 2642.35,1039.28 2641.64,1039.88 2640.18,1040.14"/>
    </edge>
    <edge id=":1445773680_4" function="internal">
        <lane id=":1445773680_4_0" index="0" allow="rail rail_electric" speed="83.33" length="3.28" shape="2640.89,1038.49 2644.17,1038.40"/>
    </edge>
    <edge id=":1445773680_5" function="internal">
        <lane id=":1445773680_5_0" index="0" allow="rail rail_electric" speed="83.33" length="2.37" shape="2640.89,1038.49 2642.93,1039.69"/>
    </edge>
    <edge id=":1445773680_7" function="internal">
        <lane id=":1445773680_7_0" index="0" speed="83.33" length="14.42" shape="2642.93,1039.69 2646.31,1041.68 2648.00,1043.01 2645.96,1042.50 2640.18,1040.14"/>
    </edge>
    <edge id=":1445773688_0" function="internal">
        <lane id=":1445773688_0_0" index="0" allow="rail rail_electric" speed="83.33" length="2.66" shape="2518.72,988.20 2516.22,987.30"/>
    </edge>
    <edge id=":1445773688_1" function="internal">
        <lane id=":1445773688_1_0" index="0" allow="rail rail_electric" speed="83.33" length="4.82" shape="2518.72,988.20 2517.88,986.97 2517.80,986.06 2518.49,985.44 2519.95,985.14"/>
    </edge>
    <edge id=":1445773688_2" function="internal">
        <lane id=":1445773688_2_0" index="0" allow="rail rail_electric" speed="83.33" length="3.25" shape="2519.38,986.55 2516.22,987.30"/>
    </edge>
    <edge id=":1445773688_3" function="internal">
        <lane id=":1445773688_3_0" index="0" allow="rail rail_electric" speed="83.33" length="16.52" shape="2519.38,986.55 2525.34,988.22 2527.42,988.54 2525.63,987.51 2519.95,985.14"/>
    </edge>
    <edge id=":1445773688_4" function="internal">
        <lane id=":1445773688_4_0" index="0" allow="rail rail_electric" speed="83.33" length="2.88" shape="2517.24,984.16 2519.95,985.14"/>
    </edge>
    <edge id=":1445773688_5" function="internal">
        <lane id=":1445773688_5_0" index="0" allow="rail rail_electric" speed="83.33" length="1.35" shape="2517.24,984.16 2518.08,985.21"/>
    </edge>
    <edge id=":1445773688_6" function="internal">
        <lane id=":1445773688_6_0" index="0" speed="83.33" length="3.47" shape="2518.08,985.21 2518.16,985.32 2518.30,986.24 2517.65,986.89 2516.22,987.30"/>
    </edge>
    <edge id=":1445773689_0" function="internal">
        <lane id=":1445773689_0_0" index="0" allow="rail rail_electric" speed="83.33" length="2.76" shape="2588.92,1011.51 2591.37,1012.78"/>
    </edge>
    <edge id=":1445773689_1" function="internal">
        <lane id=":1445773689_1_0" index="0" allow="rail rail_electric" speed="83.33" length="15.50" shape="2588.92,1011.51 2593.91,1014.47 2595.46,1015.73 2593.56,1015.30 2588.22,1013.17"/>
    </edge>
    <edge id=":1445773689_2" function="internal">
        <lane id=":1445773689_2_0" index="0" allow="rail rail_electric" speed="83.33" length="3.24" shape="2589.51,1010.13 2591.37,1012.78"/>
    </edge>
    <edge id=":1445773689_3" function="internal">
        <lane id=":1445773689_3_0" index="0" allow="rail rail_electric" speed="83.33" length="4.50" shape="2589.51,1010.13 2590.32,1011.37 2590.38,1012.29 2589.68,1012.89 2588.54,1013.11"/>
    </edge>
    <edge id=":1445773689_4" function="internal">
        <lane id=":1445773689_4_0" index="0" speed="83.33" length="0.32" shape="2588.54,1013.11 2588.22,1013.17"/>
    </edge>
    <edge id=":1445797947_0" function="internal">
        <lane id=":1445797947_0_0" index="0" allow="rail rail_electric" speed="83.33" length="3.15" shape="2454.85,952.95 2451.91,951.82"/>
    </edge>
    <edge id=":1445797947_1" function="internal">
        <lane id=":1445797947_1_0" index="0" allow="rail rail_electric" speed="83.33" length="21.59" shape="2454.85,952.95 2462.46,955.71 2465.10,956.40 2462.78,955.02 2455.49,951.56"/>
    </edge>
    <edge id=":1445797947_2" function="internal">
        <lane id=":1445797947_2_0" index="0" allow="rail rail_electric" speed="83.33" length="2.54" shape="2454.85,952.95 2453.95,951.77 2453.82,950.86 2453.91,950.77"/>
    </edge>
    <edge id=":1445797947_6" function="internal">
        <lane id=":1445797947_6_0" index="0" speed="83.33" length="2.28" shape="2453.91,950.77 2454.48,950.21 2455.92,949.83"/>
    </edge>
    <edge id=":1445797947_3" function="internal">
        <lane id=":1445797947_3_0" index="0" allow="rail rail_electric" speed="83.33" length="2.99" shape="2453.13,948.75 2455.92,949.83"/>
    </edge>
    <edge id=":1445797947_4" function="internal">
        <lane id=":1445797947_4_0" index="0" allow="rail rail_electric" speed="83.33" length="3.67" shape="2453.13,948.75 2455.49,951.56"/>
    </edge>
    <edge id=":1445797947_5" function="internal">
        <lane id=":1445797947_5_0" index="0" allow="rail rail_electric" speed="83.33" length="2.41" shape="2453.13,948.75 2453.97,949.97 2454.05,950.89"/>
    </edge>
    <edge id=":1445797947_7" function="internal">
        <lane id=":1445797947_7_0" index="0" speed="83.33" length="2.41" shape="2454.05,950.89 2453.36,951.51 2451.91,951.82"/>
    </edge>
    <edge id=":1445798014_0" function="internal">
        <lane id=":1445798014_0_0" index="0" allow="rail rail_electric" speed="83.33" length="4.82" shape="1194.65,646.50 1193.52,645.54 1193.21,644.67 1193.71,643.90 1195.04,643.22"/>
    </edge>
    <edge id=":1445803871_0" function="internal">
        <lane id=":1445803871_0_0" index="0" allow="rail rail_electric" speed="83.33" length="4.82" shape="3344.79,1462.85 3345.36,1464.23 3345.24,1465.14 3344.44,1465.59 3342.95,1465.59"/>
    </edge>
    <edge id=":1445807004_0" function="internal">
        <lane id=":1445807004_0_0" index="0" allow="rail rail_electric" speed="83.33" length="4.82" shape="3340.38,1465.83 3340.95,1467.21 3340.84,1468.12 3340.04,1468.58 3338.55,1468.57"/>
    </edge>
    <edge id=":1570019209_0" function="internal">
        <lane id=":1570019209_0_0" index="0" disallow="tram rail_urban rail rail_electric ship" speed="15.65" length="5.01" shape="2750.27,1022.88 2745.60,1021.07"/>
    </edge>
    <edge id=":1570019209_1" function="internal">
        <lane id=":1570019209_1_0" index="0" disallow="tram rail_urban rail rail_electric ship" speed="13.65" length="5.68" shape="2750.78,1018.77 2745.60,1021.07"/>
    </edge>
    <edge id=":1570019210_0" function="internal">
        <lane id=":1570019210_0_0" index="0" allow="bicycle" speed="11.72" length="7.97" width="1.00" shape="2762.89,1021.96 2757.41,1027.75"/>
    </edge>
    <edge id=":1570019210_1" function="internal">
        <lane id=":1570019210_1_0" index="0" disallow="tram rail_urban rail rail_electric ship" speed="17.88" length="8.10" shape="2762.89,1021.96 2755.09,1024.14"/>
    </edge>
    <edge id=":1570019210_2" function="internal">
        <lane id=":1570019210_2_0" index="0" allow="bicycle" speed="11.72" length="3.52" width="1.00" shape="2762.89,1021.96 2761.07,1022.58 2759.97,1022.33 2759.82,1021.89"/>
    </edge>
    <edge id=":1570019210_9" function="internal">
        <lane id=":1570019210_9_0" index="0" speed="11.72" length="2.77" width="1.00" shape="2759.82,1021.89 2759.57,1021.20 2759.89,1019.19"/>
    </edge>
    <edge id=":1570019210_3" function="internal">
        <lane id=":1570019210_3_0" index="0" allow="bicycle" speed="5.56" length="8.88" width="1.00" shape="2760.91,1019.59 2757.41,1027.75"/>
    </edge>
    <edge id=":1570019210_4" function="internal">
        <lane id=":1570019210_4_0" index="0" disallow="tram rail_urban rail rail_electric ship" speed="11.72" length="7.99" shape="2760.91,1019.59 2760.09,1021.55 2758.85,1022.96 2757.18,1023.82 2755.09,1024.14"/>
    </edge>
    <edge id=":1570019210_5" function="internal">
        <lane id=":1570019210_5_0" index="0" allow="bicycle" speed="5.56" length="1.61" width="1.00" shape="2760.91,1019.59 2760.50,1019.88 2760.20,1019.90 2759.99,1019.67 2759.89,1019.19"/>
    </edge>
    <edge id=":1570019210_6" function="internal">
        <lane id=":1570019210_6_0" index="0" disallow="tram rail_urban rail rail_electric ship" speed="11.72" length="4.48" shape="2756.42,1027.28 2756.91,1025.88 2756.85,1024.89 2756.25,1024.31 2755.09,1024.14"/>
    </edge>
    <edge id=":1570019210_7" function="internal">
        <lane id=":1570019210_7_0" index="0" allow="bicycle" speed="5.56" length="8.80" width="1.00" shape="2756.42,1027.28 2759.89,1019.19"/>
    </edge>
    <edge id=":1570019210_8" function="internal">
        <lane id=":1570019210_8_0" index="0" allow="bicycle" speed="5.56" length="0.80" width="1.00" shape="2756.42,1027.28 2756.85,1027.02 2757.15,1027.02"/>
    </edge>
    <edge id=":1570019210_10" function="internal">
        <lane id=":1570019210_10_0" index="0" speed="5.56" length="0.80" width="1.00" shape="2757.15,1027.02 2757.34,1027.26 2757.41,1027.75"/>
    </edge>
    <edge id=":1570033079_0" function="internal">
        <lane id=":1570033079_0_0" index="0" disallow="tram rail_urban rail rail_electric bicycle pedestrian ship" speed="17.88" length="3.42" shape="2763.20,1054.89 2765.93,1052.83"/>
        <lane id=":1570033079_0_1" index="1" disallow="tram rail_urban rail rail_electric bicycle pedestrian ship" speed="17.88" length="3.42" shape="2766.21,1056.24 2768.94,1054.18"/>
    </edge>
    <edge id=":1616077937_0" function="internal">
        <lane id=":1616077937_0_0" index="0" allow="bicycle" speed="5.56" length="4.64" width="1.00" shape="2915.38,874.07 2915.08,872.83 2914.45,872.28 2913.48,872.41 2912.18,873.24"/>
    </edge>
    <edge id=":1616077937_1" function="internal">
        <lane id=":1616077937_1_0" index="0" allow="delivery bicycle pedestrian" speed="5.56" length="7.80" shape="2915.38,874.07 2914.93,866.28"/>
    </edge>
    <edge id=":1616077937_2" function="internal">
        <lane id=":1616077937_2_0" index="0" allow="bicycle" speed="5.56" length="7.40" width="1.00" shape="2915.38,874.07 2918.04,867.16"/>
    </edge>
    <edge id=":1616077937_3" function="internal">
        <lane id=":1616077937_3_0" index="0" allow="bicycle" speed="5.56" length="8.36" width="1.00" shape="2918.73,868.05 2912.18,873.24"/>
    </edge>
    <edge id=":1616077937_4" function="internal">
        <lane id=":1616077937_4_0" index="0" allow="delivery bicycle pedestrian" speed="5.56" length="7.05" shape="2918.73,868.05 2917.14,869.53 2915.98,869.73 2915.25,868.65 2914.93,866.28"/>
    </edge>
    <edge id=":1616077937_5" function="internal">
        <lane id=":1616077937_5_0" index="0" allow="bicycle" speed="5.56" length="1.64" width="1.00" shape="2918.73,868.05 2918.22,868.08 2917.94,867.95 2917.88,867.64 2918.04,867.16"/>
    </edge>
    <edge id=":1616077937_6" function="internal">
        <lane id=":1616077937_6_0" index="0" allow="delivery bicycle pedestrian" speed="5.56" length="7.56" shape="2911.49,872.38 2913.06,871.55 2914.16,870.26 2914.78,868.50 2914.93,866.28"/>
    </edge>
    <edge id=":1616077937_7" function="internal">
        <lane id=":1616077937_7_0" index="0" allow="bicycle" speed="5.56" length="8.37" width="1.00" shape="2911.49,872.38 2918.04,867.16"/>
    </edge>
    <edge id=":1616077937_8" function="internal">
        <lane id=":1616077937_8_0" index="0" allow="bicycle" speed="5.56" length="1.61" width="1.00" shape="2911.49,872.38 2911.99,872.34 2912.26,872.47 2912.33,872.77 2912.18,873.24"/>
    </edge>
    <edge id=":1616077942_0" function="internal">
        <lane id=":1616077942_0_0" index="0" disallow="tram rail_urban rail rail_electric bicycle pedestrian ship" speed="11.72" length="6.36" shape="2914.86,864.00 2914.92,861.97 2915.26,860.33 2915.88,859.07 2916.77,858.20"/>
    </edge>
    <edge id=":1616077942_1" function="internal">
        <lane id=":1616077942_1_0" index="0" disallow="tram rail_urban rail rail_electric bicycle pedestrian ship" speed="17.88" length="6.95" shape="2909.20,859.40 2914.95,855.44"/>
        <lane id=":1616077942_1_1" index="1" disallow="tram rail_urban rail rail_electric bicycle pedestrian ship" speed="17.88" length="6.95" shape="2911.06,862.09 2916.77,858.20"/>
    </edge>
    <edge id=":1616077944_0" function="internal">
        <lane id=":1616077944_0_0" index="0" disallow="tram rail_urban rail rail_electric ship" speed="13.89" length="4.11" shape="2904.30,913.94 2903.64,913.12 2902.87,912.47 2901.98,912.00 2900.98,911.71"/>
    </edge>
    <edge id=":1616077944_1" function="internal">
        <lane id=":1616077944_1_0" index="0" allow="delivery bicycle pedestrian" speed="9.73" length="2.58" shape="2904.30,913.94 2904.07,913.00 2904.17,911.40"/>
    </edge>
    <edge id=":1616077944_2" function="internal">
        <lane id=":1616077944_2_0" index="0" disallow="tram rail_urban rail rail_electric ship" speed="13.89" length="2.25" shape="2904.30,913.94 2904.31,912.45 2904.69,911.79"/>
    </edge>
    <edge id=":1616077944_6" function="internal">
        <lane id=":1616077944_6_0" index="0" speed="9.73" length="5.33" shape="2904.17,911.40 2904.62,909.13 2905.41,906.21"/>
    </edge>
    <edge id=":1616077944_7" function="internal">
        <lane id=":1616077944_7_0" index="0" speed="13.89" length="2.57" shape="2904.69,911.79 2904.77,911.66 2905.69,911.55 2907.06,912.13"/>
    </edge>
    <edge id=":1616077944_3" function="internal">
        <lane id=":1616077944_3_0" index="0" allow="delivery bicycle pedestrian" speed="9.73" length="4.94" shape="2901.62,908.47 2902.96,908.55 2904.04,908.20 2904.86,907.42 2905.41,906.21"/>
    </edge>
    <edge id=":1616077944_4" function="internal">
        <lane id=":1616077944_4_0" index="0" disallow="tram rail_urban rail rail_electric ship" speed="13.89" length="6.73" shape="2901.62,908.47 2903.26,908.95 2904.72,909.73 2905.98,910.79 2907.06,912.13"/>
    </edge>
    <edge id=":1616077944_5" function="internal">
        <lane id=":1616077944_5_0" index="0" disallow="tram rail_urban rail rail_electric ship" speed="13.89" length="2.66" shape="2901.62,908.47 2902.67,909.52 2902.92,910.41 2902.76,910.60"/>
    </edge>
    <edge id=":1616077944_8" function="internal">
        <lane id=":1616077944_8_0" index="0" speed="13.89" length="2.16" shape="2902.76,910.60 2902.35,911.14 2900.98,911.71"/>
    </edge>
    <edge id=":1674807259_0" function="internal">
        <lane id=":1674807259_0_0" index="0" allow="rail rail_electric" speed="83.33" length="3.03" shape="2553.38,998.50 2551.54,996.09"/>
    </edge>
    <edge id=":1674807259_1" function="internal">
        <lane id=":1674807259_1_0" index="0" allow="rail rail_electric" speed="83.33" length="2.46" shape="2553.38,998.50 2551.10,997.56"/>
    </edge>
    <edge id=":1674807259_2" function="internal">
        <lane id=":1674807259_2_0" index="0" allow="rail rail_electric" speed="83.33" length="2.41" shape="2553.38,998.50 2552.56,997.26 2552.50,996.34"/>
    </edge>
    <edge id=":1674807259_6" function="internal">
        <lane id=":1674807259_6_0" index="0" speed="83.33" length="2.41" shape="2552.50,996.34 2553.20,995.74 2554.66,995.46"/>
    </edge>
    <edge id=":1674807259_3" function="internal">
        <lane id=":1674807259_3_0" index="0" allow="rail rail_electric" speed="83.33" length="2.82" shape="2552.05,994.38 2554.66,995.46"/>
    </edge>
    <edge id=":1674807259_4" function="internal">
        <lane id=":1674807259_4_0" index="0" allow="rail rail_electric" speed="83.33" length="16.06" shape="2552.05,994.38 2558.51,997.11 2560.58,998.31 2558.25,997.97 2554.10,996.81"/>
    </edge>
    <edge id=":1674807259_5" function="internal">
        <lane id=":1674807259_5_0" index="0" allow="rail rail_electric" speed="83.33" length="2.65" shape="2552.05,994.38 2553.00,995.53 2553.16,996.44 2553.00,996.61"/>
    </edge>
    <edge id=":1674807259_7" function="internal">
        <lane id=":1674807259_7_0" index="0" speed="83.33" length="2.66" shape="2554.10,996.81 2551.54,996.09"/>
    </edge>
    <edge id=":1674807259_8" function="internal">
        <lane id=":1674807259_8_0" index="0" speed="83.33" length="2.19" shape="2553.00,996.61 2552.53,997.12 2551.10,997.56"/>
    </edge>
    <edge id=":1719254856_0" function="internal">
        <lane id=":1719254856_0_0" index="0" allow="rail rail_electric" speed="83.33" length="4.82" shape="0.26,573.71 -0.87,572.75 -1.19,571.89 -0.68,571.11 0.64,570.43"/>
    </edge>
    <edge id=":1719254860_0" function="internal">
        <lane id=":1719254860_0_0" index="0" allow="rail rail_electric" speed="83.33" length="4.82" shape="-0.18,577.29 -1.32,576.34 -1.64,575.47 -1.14,574.70 0.18,574.01"/>
    </edge>
    <edge id=":1719254877_0" function="internal">
        <lane id=":1719254877_0_0" index="0" allow="rail rail_electric" speed="83.33" length="4.82" shape="976.53,616.32 975.32,615.46 974.93,614.62 975.37,613.81 976.63,613.02"/>
    </edge>
    <edge id=":1719254893_0" function="internal">
        <lane id=":1719254893_0_0" index="0" allow="rail rail_electric" speed="83.33" length="4.82" shape="969.11,619.15 967.91,618.27 967.53,617.43 967.98,616.63 969.25,615.86"/>
    </edge>
    <edge id=":1719254987_0" function="internal">
        <lane id=":1719254987_0_0" index="0" allow="rail rail_electric" speed="83.33" length="4.82" shape="1251.43,655.97 1250.32,654.98 1250.03,654.11 1250.56,653.35 1251.90,652.71"/>
    </edge>
    <edge id=":1719255011_0" function="internal">
        <lane id=":1719255011_0_0" index="0" allow="rail rail_electric" speed="83.33" length="5.04" shape="1292.78,665.40 1297.82,665.51"/>
    </edge>
    <edge id=":1719255011_1" function="internal">
        <lane id=":1719255011_1_0" index="0" allow="rail rail_electric" speed="83.33" length="5.51" shape="1292.78,665.40 1297.14,668.77"/>
    </edge>
    <edge id=":1719255047_0" function="internal">
        <lane id=":1719255047_0_0" index="0" allow="rail rail_electric" speed="83.33" length="0.10" shape="1444.89,685.03 1444.84,684.98"/>
    </edge>
    <edge id=":1719255047_2" function="internal">
        <lane id=":1719255047_2_0" index="0" speed="83.33" length="0.15" shape="1444.84,684.98 1444.82,684.95 1444.85,684.91 1444.90,684.88"/>
    </edge>
    <edge id=":1719255047_1" function="internal">
        <lane id=":1719255047_1_0" index="0" allow="rail rail_electric" speed="83.33" length="2.33" shape="1442.60,684.59 1444.90,684.88"/>
    </edge>
    <edge id=":1719255053_0" function="internal">
        <lane id=":1719255053_0_0" index="0" allow="rail rail_electric" speed="83.33" length="5.00" shape="1511.81,693.22 1516.77,693.87"/>
    </edge>
    <edge id=":1719255053_1" function="internal">
        <lane id=":1719255053_1_0" index="0" allow="rail rail_electric" speed="83.33" length="5.88" shape="1511.81,693.22 1516.15,697.19"/>
    </edge>
    <edge id=":1719255066_0" function="internal">
        <lane id=":1719255066_0_0" index="0" allow="rail rail_electric" speed="83.33" length="2.40" shape="1487.22,699.80 1485.07,698.73"/>
    </edge>
    <edge id=":1719255066_1" function="internal">
        <lane id=":1719255066_1_0" index="0" allow="rail rail_electric" speed="83.33" length="0.27" shape="1487.22,699.80 1487.17,699.73 1487.17,699.68 1487.20,699.65 1487.29,699.63"/>
    </edge>
    <edge id=":1719255067_0" function="internal">