<routes xmlns:xsi="http://www.w3.org/2001/XMLSchema-instance" xsi:noNamespaceSchemaLocation="http://sumo.dlr.de/xsd/routes_file.xsd">
   <vType id="CarA" color="0,1,0" accel="1.5" decel="3" sigma="0" tau="1.15" length="5" minGap="2" maxSpeed="70"/>
   <vType id="CarM" color="1,0,0" accel="1.5" decel="3" sigma="0" tau="2.05" length="5" minGap="4" maxSpeed="70"/>


   <route id="1" edges="1i 2o"/>
   <route id="2" edges="4i 2o"/>
   <route id="3" edges="3i 2o"/>

  <!-- <flow id="1" type="CarA" route="1" begin="0" end="90000"  probability="0.5"/> 
   <flow id="2" type="CarM" route="1" begin="0" end="90000"  probability="0.5"/>

   <flow id="3" type="CarA" route="3" begin="0" end="90000"  probability="0.5"/> 
   <flow id="4" type="CarM" route="3" begin="0" end="90000"  probability="0.5"/> -->

   <vehicle depart="0" id="veh0" route="1" type="CarM" departSpeed="max"/> 
<vehicle depart="0" id="veh1" route="3" type="CarA" departSpeed="max"/> 
<vehicle depart="0.5" id="veh2" route="1" type="CarA" departSpeed="max"/> 
<vehicle depart="0.5" id="veh3" route="3" type="CarA" departSpeed="max"/> 
<vehicle depart="1" id="veh4" route="1" type="CarM" departSpeed="max"/> 
<vehicle depart="1" id="veh5" route="3" type="CarM" departSpeed="max"/> 
<vehicle depart="1.5" id="veh6" route="1" type="CarA" departSpeed="max"/> 
<vehicle depart="1.5" id="veh7" route="3" type="CarA" departSpeed="max"/> 
<vehicle depart="2" id="veh8" route="1" type="CarM" departSpeed="max"/> 
<vehicle depart="2" id="veh9" route="3" type="CarA" departSpeed="max"/> 
<vehicle depart="2.5" id="veh10" route="1" type="CarA" departSpeed="max"/> 
<vehicle depart="2.5" id="veh11" route="3" type="CarA" departSpeed="max"/> 
<vehicle depart="3" id="veh12" route="1" type="CarA" departSpeed="max"/> 
<vehicle depart="3" id="veh13" route="3" type="CarA" departSpeed="max"/> 
<vehicle depart="3.5" id="veh14" route="1" type="CarA" departSpeed="max"/> 
<vehicle depart="3.5" id="veh15" route="3" type="CarA" departSpeed="max"/> 
<vehicle depart="4" id="veh16" route="1" type="CarA" departSpeed="max"/> 
<vehicle depart="4" id="veh17" route="3" type="CarA" departSpeed="max"/> 
<vehicle depart="4.5" id="veh18" route="1" type="CarA" departSpeed="max"/> 
<vehicle depart="4.5" id="veh19" route="3" type="CarA" departSpeed="max"/> 
<vehicle depart="5" id="veh20" route="1" type="CarA" departSpeed="max"/> 
<vehicle depart="5" id="veh21" route="3" type="CarA" departSpeed="max"/> 
<vehicle depart="5.5" id="veh22" route="1" type="CarM" departSpeed="max"/> 
<vehicle depart="5.5" id="veh23" route="3" type="CarM" departSpeed="max"/> 
<vehicle depart="6" id="veh24" route="1" type="CarA" departSpeed="max"/> 
<vehicle depart="6" id="veh25" route="3" type="CarM" departSpeed="max"/> 
<vehicle depart="6.5" id="veh26" route="1" type="CarM" departSpeed="max"/> 
<vehicle depart="6.5" id="veh27" route="3" type="CarA" departSpeed="max"/> 
<vehicle depart="7" id="veh28" route="1" type="CarA" departSpeed="max"/> 
<vehicle depart="7" id="veh29" route="3" type="CarM" departSpeed="max"/> 
<vehicle depart="7.5" id="veh30" route="1" type="CarA" departSpeed="max"/> 
<vehicle depart="7.5" id="veh31" route="3" type="CarA" departSpeed="max"/> 
<vehicle depart="8" id="veh32" route="1" type="CarM" departSpeed="max"/> 
<vehicle depart="8" id="veh33" route="3" type="CarA" departSpeed="max"/> 
<vehicle depart="8.5" id="veh34" route="1" type="CarA" departSpeed="max"/> 
<vehicle depart="8.5" id="veh35" route="3" type="CarM" departSpeed="max"/> 
<vehicle depart="9" id="veh36" route="1" type="CarA" departSpeed="max"/> 
<vehicle depart="9" id="veh37" route="3" type="CarM" departSpeed="max"/> 
<vehicle depart="9.5" id="veh38" route="1" type="CarM" departSpeed="max"/> 
<vehicle depart="9.5" id="veh39" route="3" type="CarA" departSpeed="max"/> 
<vehicle depart="10" id="veh40" route="1" type="CarA" departSpeed="max"/> 
<vehicle depart="10" id="veh41" route="3" type="CarM" departSpeed="max"/> 
<vehicle depart="10.5" id="veh42" route="1" type="CarM" departSpeed="max"/> 
<vehicle depart="10.5" id="veh43" route="3" type="CarA" departSpeed="max"/> 
<vehicle depart="11" id="veh44" route="1" type="CarM" departSpeed="max"/> 
<vehicle depart="11" id="veh45" route="3" type="CarA" departSpeed="max"/> 
<vehicle depart="11.5" id="veh46" route="1" type="CarM" departSpeed="max"/> 
<vehicle depart="11.5" id="veh47" route="3" type="CarM" departSpeed="max"/> 
<vehicle depart="12" id="veh48" route="1" type="CarA" departSpeed="max"/> 
<vehicle depart="12" id="veh49" route="3" type="CarM" departSpeed="max"/> 
<vehicle depart="12.5" id="veh50" route="1" type="CarA" departSpeed="max"/> 
<vehicle depart="12.5" id="veh51" route="3" type="CarM" departSpeed="max"/> 
<vehicle depart="13" id="veh52" route="1" type="CarA" departSpeed="max"/> 
<vehicle depart="13" id="veh53" route="3" type="CarM" departSpeed="max"/> 
<vehicle depart="13.5" id="veh54" route="1" type="CarA" departSpeed="max"/> 
<vehicle depart="13.5" id="veh55" route="3" type="CarA" departSpeed="max"/> 
<vehicle depart="14" id="veh56" route="1" type="CarM" departSpeed="max"/> 
<vehicle depart="14" id="veh57" route="3" type="CarA" departSpeed="max"/> 
<vehicle depart="14.5" id="veh58" route="1" type="CarM" departSpeed="max"/> 
<vehicle depart="14.5" id="veh59" route="3" type="CarM" departSpeed="max"/> 
<vehicle depart="15" id="veh60" route="1" type="CarM" departSpeed="max"/> 
<vehicle depart="15" id="veh61" route="3" type="CarM" departSpeed="max"/> 
<vehicle depart="15.5" id="veh62" route="1" type="CarM" departSpeed="max"/> 
<vehicle depart="15.5" id="veh63" route="3" type="CarM" departSpeed="max"/> 
<vehicle depart="16" id="veh64" route="1" type="CarA" departSpeed="max"/> 
<vehicle depart="16" id="veh65" route="3" type="CarM" departSpeed="max"/> 
<vehicle depart="16.5" id="veh66" route="1" type="CarM" departSpeed="max"/> 
<vehicle depart="16.5" id="veh67" route="3" type="CarA" departSpeed="max"/> 
<vehicle depart="17" id="veh68" route="1" type="CarA" departSpeed="max"/> 
<vehicle depart="17" id="veh69" route="3" type="CarA" departSpeed="max"/> 
<vehicle depart="17.5" id="veh70" route="1" type="CarA" departSpeed="max"/> 
<vehicle depart="17.5" id="veh71" route="3" type="CarM" departSpeed="max"/> 
<vehicle depart="18" id="veh72" route="1" type="CarM" departSpeed="max"/> 
<vehicle depart="18" id="veh73" route="3" type="CarM" departSpeed="max"/> 
<vehicle depart="18.5" id="veh74" route="1" type="CarM" departSpeed="max"/> 
<vehicle depart="18.5" id="veh75" route="3" type="CarM" departSpeed="max"/> 
<vehicle depart="19" id="veh76" route="1" type="CarA" departSpeed="max"/> 
<vehicle depart="19" id="veh77" route="3" type="CarA" departSpeed="max"/> 
<vehicle depart="19.5" id="veh78" route="1" type="CarM" departSpeed="max"/> 
<vehicle depart="19.5" id="veh79" route="3" type="CarA" departSpeed="max"/> 
<vehicle depart="20" id="veh80" route="1" type="CarM" departSpeed="max"/> 
<vehicle depart="20" id="veh81" route="3" type="CarM" departSpeed="max"/> 
<vehicle depart="20.5" id="veh82" route="1" type="CarA" departSpeed="max"/> 
<vehicle depart="20.5" id="veh83" route="3" type="CarM" departSpeed="max"/> 
<vehicle depart="21" id="veh84" route="1" type="CarM" departSpeed="max"/> 
<vehicle depart="21" id="veh85" route="3" type="CarA" departSpeed="max"/> 
<vehicle depart="21.5" id="veh86" route="1" type="CarM" departSpeed="max"/> 
<vehicle depart="21.5" id="veh87" route="3" type="CarA" departSpeed="max"/> 
<vehicle depart="22" id="veh88" route="1" type="CarA" departSpeed="max"/> 
<vehicle depart="22" id="veh89" route="3" type="CarA" departSpeed="max"/> 
<vehicle depart="22.5" id="veh90" route="1" type="CarM" departSpeed="max"/> 
<vehicle depart="22.5" id="veh91" route="3" type="CarM" departSpeed="max"/> 
<vehicle depart="23" id="veh92" route="1" type="CarA" departSpeed="max"/> 
<vehicle depart="23" id="veh93" route="3" type="CarA" departSpeed="max"/> 
<vehicle depart="23.5" id="veh94" route="1" type="CarM" departSpeed="max"/> 
<vehicle depart="23.5" id="veh95" route="3" type="CarM" departSpeed="max"/> 
<vehicle depart="24" id="veh96" route="1" type="CarA" departSpeed="max"/> 
<vehicle depart="24" id="veh97" route="3" type="CarM" departSpeed="max"/> 
<vehicle depart="24.5" id="veh98" route="1" type="CarM" departSpeed="max"/> 
<vehicle depart="24.5" id="veh99" route="3" type="CarA" departSpeed="max"/> 
<vehicle depart="25" id="veh100" route="1" type="CarM" departSpeed="max"/> 
<vehicle depart="25" id="veh101" route="3" type="CarM" departSpeed="max"/> 
<vehicle depart="25.5" id="veh102" route="1" type="CarA" departSpeed="max"/> 
<vehicle depart="25.5" id="veh103" route="3" type="CarM" departSpeed="max"/> 
<vehicle depart="26" id="veh104" route="1" type="CarM" departSpeed="max"/> 
<vehicle depart="26" id="veh105" route="3" type="CarM" departSpeed="max"/> 
<vehicle depart="26.5" id="veh106" route="1" type="CarM" departSpeed="max"/> 
<vehicle depart="26.5" id="veh107" route="3" type="CarA" departSpeed="max"/> 
<vehicle depart="27" id="veh108" route="1" type="CarM" departSpeed="max"/> 
<vehicle depart="27" id="veh109" route="3" type="CarM" departSpeed="max"/> 
<vehicle depart="27.5" id="veh110" route="1" type="CarM" departSpeed="max"/> 
<vehicle depart="27.5" id="veh111" route="3" type="CarM" departSpeed="max"/> 
<vehicle depart="28" id="veh112" route="1" type="CarM" departSpeed="max"/> 
<vehicle depart="28" id="veh113" route="3" type="CarA" departSpeed="max"/> 
<vehicle depart="28.5" id="veh114" route="1" type="CarA" departSpeed="max"/> 
<vehicle depart="28.5" id="veh115" route="3" type="CarA" departSpeed="max"/> 
<vehicle depart="29" id="veh116" route="1" type="CarA" departSpeed="max"/> 
<vehicle depart="29" id="veh117" route="3" type="CarA" departSpeed="max"/> 
<vehicle depart="29.5" id="veh118" route="1" type="CarM" departSpeed="max"/> 
<vehicle depart="29.5" id="veh119" route="3" type="CarA" departSpeed="max"/> 
<vehicle depart="30" id="veh120" route="1" type="CarA" departSpeed="max"/> 
<vehicle depart="30" id="veh121" route="3" type="CarA" departSpeed="max"/> 
<vehicle depart="30.5" id="veh122" route="1" type="CarA" departSpeed="max"/> 
<vehicle depart="30.5" id="veh123" route="3" type="CarM" departSpeed="max"/> 
<vehicle depart="31" id="veh124" route="1" type="CarA" departSpeed="max"/> 
<vehicle depart="31" id="veh125" route="3" type="CarM" departSpeed="max"/> 
<vehicle depart="31.5" id="veh126" route="1" type="CarA" departSpeed="max"/> 
<vehicle depart="31.5" id="veh127" route="3" type="CarA" departSpeed="max"/> 
<vehicle depart="32" id="veh128" route="1" type="CarM" departSpeed="max"/> 
<vehicle depart="32" id="veh129" route="3" type="CarM" departSpeed="max"/> 
<vehicle depart="32.5" id="veh130" route="1" type="CarM" departSpeed="max"/> 
<vehicle depart="32.5" id="veh131" route="3" type="CarA" departSpeed="max"/> 
<vehicle depart="33" id="veh132" route="1" type="CarA" departSpeed="max"/> 
<vehicle depart="33" id="veh133" route="3" type="CarM" departSpeed="max"/> 
<vehicle depart="33.5" id="veh134" route="1" type="CarA" departSpeed="max"/> 
<vehicle depart="33.5" id="veh135" route="3" type="CarA" departSpeed="max"/> 
<vehicle depart="34" id="veh136" route="1" type="CarA" departSpeed="max"/> 
<vehicle depart="34" id="veh137" route="3" type="CarA" departSpeed="max"/> 
<vehicle depart="34.5" id="veh138" route="1" type="CarM" departSpeed="max"/> 
<vehicle depart="34.5" id="veh139" route="3" type="CarM" departSpeed="max"/> 
<vehicle depart="35" id="veh140" route="1" type="CarM" departSpeed="max"/> 
<vehicle depart="35" id="veh141" route="3" type="CarA" departSpeed="max"/> 
<vehicle depart="35.5" id="veh142" route="1" type="CarM" departSpeed="max"/> 
<vehicle depart="35.5" id="veh143" route="3" type="CarM" departSpeed="max"/> 
<vehicle depart="36" id="veh144" route="1" type="CarA" departSpeed="max"/> 
<vehicle depart="36" id="veh145" route="3" type="CarA" departSpeed="max"/> 
<vehicle depart="36.5" id="veh146" route="1" type="CarA" departSpeed="max"/> 
<vehicle depart="36.5" id="veh147" route="3" type="CarA" departSpeed="max"/> 
<vehicle depart="37" id="veh148" route="1" type="CarM" departSpeed="max"/> 
<vehicle depart="37" id="veh149" route="3" type="CarM" departSpeed="max"/> 
<vehicle depart="37.5" id="veh150" route="1" type="CarM" departSpeed="max"/> 
<vehicle depart="37.5" id="veh151" route="3" type="CarM" departSpeed="max"/> 
<vehicle depart="38" id="veh152" route="1" type="CarM" departSpeed="max"/> 
<vehicle depart="38" id="veh153" route="3" type="CarM" departSpeed="max"/> 
<vehicle depart="38.5" id="veh154" route="1" type="CarM" departSpeed="max"/> 
<vehicle depart="38.5" id="veh155" route="3" type="CarA" departSpeed="max"/> 
<vehicle depart="39" id="veh156" route="1" type="CarM" departSpeed="max"/> 
<vehicle depart="39" id="veh157" route="3" type="CarM" departSpeed="max"/> 
<vehicle depart="39.5" id="veh158" route="1" type="CarA" departSpeed="max"/> 
<vehicle depart="39.5" id="veh159" route="3" type="CarA" departSpeed="max"/> 
<vehicle depart="40" id="veh160" route="1" type="CarA" departSpeed="max"/> 
<vehicle depart="40" id="veh161" route="3" type="CarM" departSpeed="max"/> 
<vehicle depart="40.5" id="veh162" route="1" type="CarA" departSpeed="max"/> 
<vehicle depart="40.5" id="veh163" route="3" type="CarM" departSpeed="max"/> 
<vehicle depart="41" id="veh164" route="1" type="CarA" departSpeed="max"/> 
<vehicle depart="41" id="veh165" route="3" type="CarA" departSpeed="max"/> 
<vehicle depart="41.5" id="veh166" route="1" type="CarA" departSpeed="max"/> 
<vehicle depart="41.5" id="veh167" route="3" type="CarM" departSpeed="max"/> 
<vehicle depart="42" id="veh168" route="1" type="CarM" departSpeed="max"/> 
<vehicle depart="42" id="veh169" route="3" type="CarM" departSpeed="max"/> 
<vehicle depart="42.5" id="veh170" route="1" type="CarM" departSpeed="max"/> 
<vehicle depart="42.5" id="veh171" route="3" type="CarM" departSpeed="max"/> 
<vehicle depart="43" id="veh172" route="1" type="CarM" departSpeed="max"/> 
<vehicle depart="43" id="veh173" route="3" type="CarM" departSpeed="max"/> 
<vehicle depart="43.5" id="veh174" route="1" type="CarM" departSpeed="max"/> 
<vehicle depart="43.5" id="veh175" route="3" type="CarA" departSpeed="max"/> 
<vehicle depart="44" id="veh176" route="1" type="CarM" departSpeed="max"/> 
<vehicle depart="44" id="veh177" route="3" type="CarA" departSpeed="max"/> 
<vehicle depart="44.5" id="veh178" route="1" type="CarM" departSpeed="max"/> 
<vehicle depart="44.5" id="veh179" route="3" type="CarM" departSpeed="max"/> 
<vehicle depart="45" id="veh180" route="1" type="CarA" departSpeed="max"/> 
<vehicle depart="45" id="veh181" route="3" type="CarM" departSpeed="max"/> 
<vehicle depart="45.5" id="veh182" route="1" type="CarA" departSpeed="max"/> 
<vehicle depart="45.5" id="veh183" route="3" type="CarM" departSpeed="max"/> 
<vehicle depart="46" id="veh184" route="1" type="CarA" departSpeed="max"/> 
<vehicle depart="46" id="veh185" route="3" type="CarM" departSpeed="max"/> 
<vehicle depart="46.5" id="veh186" route="1" type="CarA" departSpeed="max"/> 
<vehicle depart="46.5" id="veh187" route="3" type="CarM" departSpeed="max"/> 
<vehicle depart="47" id="veh188" route="1" type="CarA" departSpeed="max"/> 
<vehicle depart="47" id="veh189" route="3" type="CarM" departSpeed="max"/> 
<vehicle depart="47.5" id="veh190" route="1" type="CarM" departSpeed="max"/> 
<vehicle depart="47.5" id="veh191" route="3" type="CarM" departSpeed="max"/> 
<vehicle depart="48" id="veh192" route="1" type="CarA" departSpeed="max"/> 
<vehicle depart="48" id="veh193" route="3" type="CarA" departSpeed="max"/> 
<vehicle depart="48.5" id="veh194" route="1" type="CarA" departSpeed="max"/> 
<vehicle depart="48.5" id="veh195" route="3" type="CarA" departSpeed="max"/> 
<vehicle depart="49" id="veh196" route="1" type="CarM" departSpeed="max"/> 
<vehicle depart="49" id="veh197" route="3" type="CarM" departSpeed="max"/> 
<vehicle depart="49.5" id="veh198" route="1" type="CarM" departSpeed="max"/> 
<vehicle depart="49.5" id="veh199" route="3" type="CarA" departSpeed="max"/> 
<vehicle depart="50" id="veh200" route="1" type="CarA" departSpeed="max"/> 
<vehicle depart="50" id="veh201" route="3" type="CarA" departSpeed="max"/> 
<vehicle depart="50.5" id="veh202" route="1" type="CarA" departSpeed="max"/> 
<vehicle depart="50.5" id="veh203" route="3" type="CarM" departSpeed="max"/> 
<vehicle depart="51" id="veh204" route="1" type="CarM" departSpeed="max"/> 
<vehicle depart="51" id="veh205" route="3" type="CarA" departSpeed="max"/> 
<vehicle depart="51.5" id="veh206" route="1" type="CarM" departSpeed="max"/> 
<vehicle depart="51.5" id="veh207" route="3" type="CarA" departSpeed="max"/> 
<vehicle depart="52" id="veh208" route="1" type="CarM" departSpeed="max"/> 
<vehicle depart="52" id="veh209" route="3" type="CarM" departSpeed="max"/> 
<vehicle depart="52.5" id="veh210" route="1" type="CarM" departSpeed="max"/> 
<vehicle depart="52.5" id="veh211" route="3" type="CarM" departSpeed="max"/> 
<vehicle depart="53" id="veh212" route="1" type="CarM" departSpeed="max"/> 
<vehicle depart="53" id="veh213" route="3" type="CarA" departSpeed="max"/> 
<vehicle depart="53.5" id="veh214" route="1" type="CarA" departSpeed="max"/> 
<vehicle depart="53.5" id="veh215" route="3" type="CarM" departSpeed="max"/> 
<vehicle depart="54" id="veh216" route="1" type="CarA" departSpeed="max"/> 
<vehicle depart="54" id="veh217" route="3" type="CarA" departSpeed="max"/> 
<vehicle depart="54.5" id="veh218" route="1" type="CarM" departSpeed="max"/> 
<vehicle depart="54.5" id="veh219" route="3" type="CarM" departSpeed="max"/> 
<vehicle depart="55" id="veh220" route="1" type="CarA" departSpeed="max"/> 
<vehicle depart="55" id="veh221" route="3" type="CarM" departSpeed="max"/> 
<vehicle depart="55.5" id="veh222" route="1" type="CarA" departSpeed="max"/> 
<vehicle depart="55.5" id="veh223" route="3" type="CarM" departSpeed="max"/> 
<vehicle depart="56" id="veh224" route="1" type="CarM" departSpeed="max"/> 
<vehicle depart="56" id="veh225" route="3" type="CarM" departSpeed="max"/> 
<vehicle depart="56.5" id="veh226" route="1" type="CarA" departSpeed="max"/> 
<vehicle depart="56.5" id="veh227" route="3" type="CarM" departSpeed="max"/> 
<vehicle depart="57" id="veh228" route="1" type="CarA" departSpeed="max"/> 
<vehicle depart="57" id="veh229" route="3" type="CarM" departSpeed="max"/> 
<vehicle depart="57.5" id="veh230" route="1" type="CarA" departSpeed="max"/> 
<vehicle depart="57.5" id="veh231" route="3" type="CarA" departSpeed="max"/> 
<vehicle depart="58" id="veh232" route="1" type="CarA" departSpeed="max"/> 
<vehicle depart="58" id="veh233" route="3" type="CarA" departSpeed="max"/> 
<vehicle depart="58.5" id="veh234" route="1" type="CarM" departSpeed="max"/> 
<vehicle depart="58.5" id="veh235" route="3" type="CarM" departSpeed="max"/> 
<vehicle depart="59" id="veh236" route="1" type="CarM" departSpeed="max"/> 
<vehicle depart="59" id="veh237" route="3" type="CarA" departSpeed="max"/> 
<vehicle depart="59.5" id="veh238" route="1" type="CarM" departSpeed="max"/> 
<vehicle depart="59.5" id="veh239" route="3" type="CarM" departSpeed="max"/> 
<vehicle depart="60" id="veh240" route="1" type="CarA" departSpeed="max"/> 
<vehicle depart="60" id="veh241" route="3" type="CarM" departSpeed="max"/> 
<vehicle depart="60.5" id="veh242" route="1" type="CarA" departSpeed="max"/> 
<vehicle depart="60.5" id="veh243" route="3" type="CarA" departSpeed="max"/> 
<vehicle depart="61" id="veh244" route="1" type="CarA" departSpeed="max"/> 
<vehicle depart="61" id="veh245" route="3" type="CarM" departSpeed="max"/> 
<vehicle depart="61.5" id="veh246" route="1" type="CarA" departSpeed="max"/> 
<vehicle depart="61.5" id="veh247" route="3" type="CarM" departSpeed="max"/> 
<vehicle depart="62" id="veh248" route="1" type="CarA" departSpeed="max"/> 
<vehicle depart="62" id="veh249" route="3" type="CarM" departSpeed="max"/> 
<vehicle depart="62.5" id="veh250" route="1" type="CarA" departSpeed="max"/> 
<vehicle depart="62.5" id="veh251" route="3" type="CarA" departSpeed="max"/> 
<vehicle depart="63" id="veh252" route="1" type="CarM" departSpeed="max"/> 
<vehicle depart="63" id="veh253" route="3" type="CarA" departSpeed="max"/> 
<vehicle depart="63.5" id="veh254" route="1" type="CarM" departSpeed="max"/> 
<vehicle depart="63.5" id="veh255" route="3" type="CarM" departSpeed="max"/> 
<vehicle depart="64" id="veh256" route="1" type="CarA" departSpeed="max"/> 
<vehicle depart="64" id="veh257" route="3" type="CarM" departSpeed="max"/> 
<vehicle depart="64.5" id="veh258" route="1" type="CarM" departSpeed="max"/> 
<vehicle depart="64.5" id="veh259" route="3" type="CarA" departSpeed="max"/> 
<vehicle depart="65" id="veh260" route="1" type="CarM" departSpeed="max"/> 
<vehicle depart="65" id="veh261" route="3" type="CarM" departSpeed="max"/> 
<vehicle depart="65.5" id="veh262" route="1" type="CarA" departSpeed="max"/> 
<vehicle depart="65.5" id="veh263" route="3" type="CarM" departSpeed="max"/> 
<vehicle depart="66" id="veh264" route="1" type="CarA" departSpeed="max"/> 
<vehicle depart="66" id="veh265" route="3" type="CarM" departSpeed="max"/> 
<vehicle depart="66.5" id="veh266" route="1" type="CarM" departSpeed="max"/> 
<vehicle depart="66.5" id="veh267" route="3" type="CarA" departSpeed="max"/> 
<vehicle depart="67" id="veh268" route="1" type="CarA" departSpeed="max"/> 
<vehicle depart="67" id="veh269" route="3" type="CarM" departSpeed="max"/> 
<vehicle depart="67.5" id="veh270" route="1" type="CarA" departSpeed="max"/> 
<vehicle depart="67.5" id="veh271" route="3" type="CarM" departSpeed="max"/> 
<vehicle depart="68" id="veh272" route="1" type="CarA" departSpeed="max"/> 
<vehicle depart="68" id="veh273" route="3" type="CarM" departSpeed="max"/> 
<vehicle depart="68.5" id="veh274" route="1" type="CarA" departSpeed="max"/> 
<vehicle depart="68.5" id="veh275" route="3" type="CarA" departSpeed="max"/> 
<vehicle depart="69" id="veh276" route="1" type="CarM" departSpeed="max"/> 
<vehicle depart="69" id="veh277" route="3" type="CarA" departSpeed="max"/> 
<vehicle depart="69.5" id="veh278" route="1" type="CarM" departSpeed="max"/> 
<vehicle depart="69.5" id="veh279" route="3" type="CarA" departSpeed="max"/> 
<vehicle depart="70" id="veh280" route="1" type="CarM" departSpeed="max"/> 
<vehicle depart="70" id="veh281" route="3" type="CarM" departSpeed="max"/> 
<vehicle depart="70.5" id="veh282" route="1" type="CarA" departSpeed="max"/> 
<vehicle depart="70.5" id="veh283" route="3" type="CarM" departSpeed="max"/> 
<vehicle depart="71" id="veh284" route="1" type="CarM" departSpeed="max"/> 
<vehicle depart="71" id="veh285" route="3" type="CarA" departSpeed="max"/> 
<vehicle depart="71.5" id="veh286" route="1" type="CarM" departSpeed="max"/> 
<vehicle depart="71.5" id="veh287" route="3" type="CarA" departSpeed="max"/> 
<vehicle depart="72" id="veh288" route="1" type="CarM" departSpeed="max"/> 
<vehicle depart="72" id="veh289" route="3" type="CarA" departSpeed="max"/> 
<vehicle depart="72.5" id="veh290" route="1" type="CarM" departSpeed="max"/> 
<vehicle depart="72.5" id="veh291" route="3" type="CarA" departSpeed="max"/> 
<vehicle depart="73" id="veh292" route="1" type="CarA" departSpeed="max"/> 
<vehicle depart="73" id="veh293" route="3" type="CarM" departSpeed="max"/> 
<vehicle depart="73.5" id="veh294" route="1" type="CarM" departSpeed="max"/> 
<vehicle depart="73.5" id="veh295" route="3" type="CarM" departSpeed="max"/> 
<vehicle depart="74" id="veh296" route="1" type="CarM" departSpeed="max"/> 
<vehicle depart="74" id="veh297" route="3" type="CarA" departSpeed="max"/> 
<vehicle depart="74.5" id="veh298" route="1" type="CarA" departSpeed="max"/> 
<vehicle depart="74.5" id="veh299" route="3" type="CarM" departSpeed="max"/> 
<vehicle depart="75" id="veh300" route="1" type="CarA" departSpeed="max"/> 
<vehicle depart="75" id="veh301" route="3" type="CarA" departSpeed="max"/> 
<vehicle depart="75.5" id="veh302" route="1" type="CarA" departSpeed="max"/> 
<vehicle depart="75.5" id="veh303" route="3" type="CarM" departSpeed="max"/> 
<vehicle depart="76" id="veh304" route="1" type="CarA" departSpeed="max"/> 
<vehicle depart="76" id="veh305" route="3" type="CarM" departSpeed="max"/> 
<vehicle depart="76.5" id="veh306" route="1" type="CarM" departSpeed="max"/> 
<vehicle depart="76.5" id="veh307" route="3" type="CarA" departSpeed="max"/> 
<vehicle depart="77" id="veh308" route="1" type="CarA" departSpeed="max"/> 
<vehicle depart="77" id="veh309" route="3" type="CarM" departSpeed="max"/> 
<vehicle depart="77.5" id="veh310" route="1" type="CarM" departSpeed="max"/> 
<vehicle depart="77.5" id="veh311" route="3" type="CarM" departSpeed="max"/> 
<vehicle depart="78" id="veh312" route="1" type="CarA" departSpeed="max"/> 
<vehicle depart="78" id="veh313" route="3" type="CarM" departSpeed="max"/> 
<vehicle depart="78.5" id="veh314" route="1" type="CarA" departSpeed="max"/> 
<vehicle depart="78.5" id="veh315" route="3" type="CarA" departSpeed="max"/> 
<vehicle depart="79" id="veh316" route="1" type="CarM" departSpeed="max"/> 
<vehicle depart="79" id="veh317" route="3" type="CarM" departSpeed="max"/> 
<vehicle depart="79.5" id="veh318" route="1" type="CarM" departSpeed="max"/> 
<vehicle depart="79.5" id="veh319" route="3" type="CarA" departSpeed="max"/> 
<vehicle depart="80" id="veh320" route="1" type="CarM" departSpeed="max"/> 
<vehicle depart="80" id="veh321" route="3" type="CarA" departSpeed="max"/> 
<vehicle depart="80.5" id="veh322" route="1" type="CarA" departSpeed="max"/> 
<vehicle depart="80.5" id="veh323" route="3" type="CarA" departSpeed="max"/> 
<vehicle depart="81" id="veh324" route="1" type="CarA" departSpeed="max"/> 
<vehicle depart="81" id="veh325" route="3" type="CarM" departSpeed="max"/> 
<vehicle depart="81.5" id="veh326" route="1" type="CarM" departSpeed="max"/> 
<vehicle depart="81.5" id="veh327" route="3" type="CarA" departSpeed="max"/> 
<vehicle depart="82" id="veh328" route="1" type="CarA" departSpeed="max"/> 
<vehicle depart="82" id="veh329" route="3" type="CarM" departSpeed="max"/> 
<vehicle depart="82.5" id="veh330" route="1" type="CarA" departSpeed="max"/> 
<vehicle depart="82.5" id="veh331" route="3" type="CarA" departSpeed="max"/> 
<vehicle depart="83" id="veh332" route="1" type="CarM" departSpeed="max"/> 
<vehicle depart="83" id="veh333" route="3" type="CarM" departSpeed="max"/> 
<vehicle depart="83.5" id="veh334" route="1" type="CarA" departSpeed="max"/> 
<vehicle depart="83.5" id="veh335" route="3" type="CarA" departSpeed="max"/> 
<vehicle depart="84" id="veh336" route="1" type="CarA" departSpeed="max"/> 
<vehicle depart="84" id="veh337" route="3" type="CarA" departSpeed="max"/> 
<vehicle depart="84.5" id="veh338" route="1" type="CarM" departSpeed="max"/> 
<vehicle depart="84.5" id="veh339" route="3" type="CarM" departSpeed="max"/> 
<vehicle depart="85" id="veh340" route="1" type="CarA" departSpeed="max"/> 
<vehicle depart="85" id="veh341" route="3" type="CarM" departSpeed="max"/> 
<vehicle depart="85.5" id="veh342" route="1" type="CarA" departSpeed="max"/> 
<vehicle depart="85.5" id="veh343" route="3" type="CarM" departSpeed="max"/> 
<vehicle depart="86" id="veh344" route="1" type="CarA" departSpeed="max"/> 
<vehicle depart="86" id="veh345" route="3" type="CarM" departSpeed="max"/> 
<vehicle depart="86.5" id="veh346" route="1" type="CarM" departSpeed="max"/> 
<vehicle depart="86.5" id="veh347" route="3" type="CarA" departSpeed="max"/> 
<vehicle depart="87" id="veh348" route="1" type="CarM" departSpeed="max"/> 
<vehicle depart="87" id="veh349" route="3" type="CarM" departSpeed="max"/> 
<vehicle depart="87.5" id="veh350" route="1" type="CarM" departSpeed="max"/> 
<vehicle depart="87.5" id="veh351" route="3" type="CarA" departSpeed="max"/> 
<vehicle depart="88" id="veh352" route="1" type="CarM" departSpeed="max"/> 
<vehicle depart="88" id="veh353" route="3" type="CarA" departSpeed="max"/> 
<vehicle depart="88.5" id="veh354" route="1" type="CarA" departSpeed="max"/> 
<vehicle depart="88.5" id="veh355" route="3" type="CarA" departSpeed="max"/> 
<vehicle depart="89" id="veh356" route="1" type="CarA" departSpeed="max"/> 
<vehicle depart="89" id="veh357" route="3" type="CarM" departSpeed="max"/> 
<vehicle depart="89.5" id="veh358" route="1" type="CarM" departSpeed="max"/> 
<vehicle depart="89.5" id="veh359" route="3" type="CarA" departSpeed="max"/> 
<vehicle depart="90" id="veh360" route="1" type="CarM" departSpeed="max"/> 
<vehicle depart="90" id="veh361" route="3" type="CarM" departSpeed="max"/> 
<vehicle depart="90.5" id="veh362" route="1" type="CarM" departSpeed="max"/> 
<vehicle depart="90.5" id="veh363" route="3" type="CarA" departSpeed="max"/> 
<vehicle depart="91" id="veh364" route="1" type="CarM" departSpeed="max"/> 
<vehicle depart="91" id="veh365" route="3" type="CarA" departSpeed="max"/> 
<vehicle depart="91.5" id="veh366" route="1" type="CarM" departSpeed="max"/> 
<vehicle depart="91.5" id="veh367" route="3" type="CarM" departSpeed="max"/> 
<vehicle depart="92" id="veh368" route="1" type="CarA" departSpeed="max"/> 
<vehicle depart="92" id="veh369" route="3" type="CarM" departSpeed="max"/> 
<vehicle depart="92.5" id="veh370" route="1" type="CarA" departSpeed="max"/> 
<vehicle depart="92.5" id="veh371" route="3" type="CarA" departSpeed="max"/> 
<vehicle depart="93" id="veh372" route="1" type="CarM" departSpeed="max"/> 
<vehicle depart="93" id="veh373" route="3" type="CarM" departSpeed="max"/> 
<vehicle depart="93.5" id="veh374" route="1" type="CarM" departSpeed="max"/> 
<vehicle depart="93.5" id="veh375" route="3" type="CarA" departSpeed="max"/> 
<vehicle depart="94" id="veh376" route="1" type="CarM" departSpeed="max"/> 
<vehicle depart="94" id="veh377" route="3" type="CarM" departSpeed="max"/> 
<vehicle depart="94.5" id="veh378" route="1" type="CarA" departSpeed="max"/> 
<vehicle depart="94.5" id="veh379" route="3" type="CarM" departSpeed="max"/> 
<vehicle depart="95" id="veh380" route="1" type="CarM" departSpeed="max"/> 