<?xml version="1.0" encoding="UTF-8"?>
<nodes xmlns:xsi="http://www.w3.org/2001/XMLSchema-instance" xsi:noNamespaceSchemaLocation="http://sumo.dlr.de/xsd/nodes_file.xsd">
   <node id="1" x="2145.0" y="1015.0" />
   <node id="2" x="1750.0" y="1015.0" type="traffic_light" />
   <node id="3" x="1750.0" y="860.0" />
   <node id="4" x="1670.0" y="1015.0" type="traffic_light" />
   <node id="5" x="1670.0" y="860.0" />
   
   <node id="11" x="130.0"  y="1005.0" />
   <node id="12" x="90.0"   y="1030.0" type="priority" />
   <node id="13" x="90.0"   y="995.0" type="traffic_light" />
   
   <node id="21" x="90.0"   y="800.0" />
   <node id="22" x="-50.0"  y="910.0" />
   
   <node id="31" x="90.0"   y="1120.0" />
   <node id="32" x="90.0"   y="1190.0" />
   <node id="33" x="120.0"  y="1150.0" />
   
   <node id="6" x="2385.0" y="895.0" />
   <node id="7" x="2500.0" y="690.0" type="traffic_light" />
   <node id="8" x="2820.0" y="150.0" />
   
   <node id="40" x="2950.0" y="80.0" type="traffic_light" />
   <node id="41" x="3085.0" y="75.0" type="traffic_light" />
   <node id="42" x="3435.0" y="76.0" type="traffic_light" />
   <node id="43" x="3720.0" y="78.0" type="traffic_light" />
   <node id="44" x="4035.0" y="80.0" type="traffic_light" />
   <node id="45" x="4235.0" y="83.0" type="traffic_light" />
   <node id="46" x="4445.0" y="85.0" type="traffic_light" />
   <node id="47" x="4605.0" y="86.0" />
   <node id="48" x="4670.0" y="90.0" />
   <node id="49" x="4855.0" y="90.0" type="traffic_light" />
   <node id="50" x="5080.0" y="90.0" />
   
   <node id="60" x="4855.0" y="200.0" />
   <node id="61" x="4620.0" y="120.0" />
   <node id="62" x="4605.0" y="170.0" />
   <node id="63" x="4605.0" y="50.0" />
   <node id="64" x="4443.0" y="170.0" />
   <node id="65" x="4443.0" y="10.0" />
   <node id="66" x="4235.0" y="155.0" />
   <node id="67" x="4227.0" y="35.0" />
   <node id="68" x="4038.0" y="120.0" />
   <node id="69" x="4035.0" y="35.0" />
   <node id="70" x="3720.0" y="140.0" />
   <node id="71" x="3720.0" y="20.0" />
   <node id="72" x="3435.0" y="140.0" />
   <node id="73" x="3435.0" y="20.0" />
   <node id="74" x="3125.0" y="125.0" />
   <node id="75" x="3025.0" y="8.0" />
   <node id="76" x="2855.0" y="40.0" />
   <node id="77" x="2580.0" y="685.0" />
</nodes>

