<?xml version="1.0" encoding="UTF-8"?>

<!-- generated on 06/04/16 15:49:52 by SUMO netconvert Version 0.25.0
<?xml version="1.0" encoding="UTF-8"?>

<configuration xmlns:xsi="http://www.w3.org/2001/XMLSchema-instance" xsi:noNamespaceSchemaLocation="http://sumo.dlr.de/xsd/netconvertConfiguration.xsd">

    <input>
        <type-files value="c:\Users\ArminAskari\Desktop\sumo-0.25.0/data/typemap/osmNetconvert.typ.xml"/>
        <osm-files value="MoCo_Network.osm"/>
    </input>

    <output>
        <output-file value="map.net.xml"/>
    </output>

    <projection>
        <proj.utm value="true"/>
    </projection>

</configuration>
-->

<net version="0.25" xmlns:xsi="http://www.w3.org/2001/XMLSchema-instance" xsi:noNamespaceSchemaLocation="http://sumo.dlr.de/xsd/net_file.xsd">

    <location netOffset="-313947.10,-4324493.22" convBoundary="0.00,0.00,3209.18,788.18" origBoundary="-77.150218,39.050263,-77.113046,39.057044" projParameter="+proj=utm +zone=18 +ellps=WGS84 +datum=WGS84 +units=m +no_defs"/>

    <type id="highway.bridleway" priority="1" numLanes="1" speed="2.78" allow="pedestrian" oneway="1" width="2.00"/>
    <type id="highway.bus_guideway" priority="1" numLanes="1" speed="8.33" allow="bus" oneway="1"/>
    <type id="highway.cycleway" priority="1" numLanes="1" speed="5.56" allow="bicycle" oneway="0" width="1.00"/>
    <type id="highway.footway" priority="1" numLanes="1" speed="8.33" allow="pedestrian" oneway="1" width="2.00"/>
    <type id="highway.ford" priority="1" numLanes="1" speed="2.78" allow="army" oneway="0"/>
    <type id="highway.living_street" priority="3" numLanes="1" speed="2.78" disallow="tram rail_urban rail rail_electric ship" oneway="0"/>
    <type id="highway.motorway" priority="13" numLanes="2" speed="44.44" allow="private emergency authority army vip passenger hov taxi bus coach delivery truck trailer motorcycle evehicle custom1 custom2" oneway="1"/>
    <type id="highway.motorway_link" priority="12" numLanes="1" speed="22.22" allow="private emergency authority army vip passenger hov taxi bus coach delivery truck trailer motorcycle evehicle custom1 custom2" oneway="1"/>
    <type id="highway.path" priority="1" numLanes="1" speed="2.78" allow="bicycle pedestrian" oneway="1" width="2.00"/>
    <type id="highway.pedestrian" priority="1" numLanes="1" speed="8.33" allow="pedestrian" oneway="1" width="2.00"/>
    <type id="highway.primary" priority="9" numLanes="2" speed="27.78" disallow="tram rail_urban rail rail_electric ship" oneway="0"/>
    <type id="highway.primary_link" priority="8" numLanes="1" speed="22.22" disallow="tram rail_urban rail rail_electric ship" oneway="0"/>
    <type id="highway.raceway" priority="14" numLanes="2" speed="83.33" allow="vip" oneway="0"/>
    <type id="highway.residential" priority="4" numLanes="1" speed="13.89" disallow="tram rail_urban rail rail_electric ship" oneway="0"/>
    <type id="highway.secondary" priority="7" numLanes="2" speed="27.78" disallow="tram rail_urban rail rail_electric ship" oneway="0"/>
    <type id="highway.secondary_link" priority="6" numLanes="1" speed="22.22" disallow="tram rail_urban rail rail_electric ship" oneway="0"/>
    <type id="highway.service" priority="2" numLanes="1" speed="5.56" allow="delivery bicycle pedestrian" oneway="0"/>
    <type id="highway.services" priority="1" numLanes="1" speed="8.33" disallow="tram rail_urban rail rail_electric ship" oneway="0"/>
    <type id="highway.stairs" priority="1" numLanes="1" speed="1.39" allow="pedestrian" oneway="1" width="2.00"/>
    <type id="highway.step" priority="1" numLanes="1" speed="1.39" allow="pedestrian" oneway="1" width="2.00"/>
    <type id="highway.steps" priority="1" numLanes="1" speed="1.39" allow="pedestrian" oneway="1" width="2.00"/>
    <type id="highway.tertiary" priority="6" numLanes="1" speed="22.22" disallow="tram rail_urban rail rail_electric ship" oneway="0"/>
    <type id="highway.tertiary_link" priority="5" numLanes="1" speed="22.22" disallow="tram rail_urban rail rail_electric ship" oneway="0"/>
    <type id="highway.track" priority="1" numLanes="1" speed="5.56" disallow="tram rail_urban rail rail_electric ship" oneway="0"/>
    <type id="highway.trunk" priority="11" numLanes="2" speed="27.78" disallow="tram rail_urban rail rail_electric bicycle pedestrian ship" oneway="0"/>
    <type id="highway.trunk_link" priority="10" numLanes="1" speed="22.22" disallow="tram rail_urban rail rail_electric bicycle pedestrian ship" oneway="0"/>
    <type id="highway.unclassified" priority="5" numLanes="1" speed="13.89" disallow="tram rail_urban rail rail_electric ship" oneway="0"/>
    <type id="highway.unsurfaced" priority="1" numLanes="1" speed="8.33" disallow="tram rail_urban rail rail_electric ship" oneway="0"/>
    <type id="railway.light_rail" priority="15" numLanes="1" speed="27.78" allow="rail_urban" oneway="1"/>
    <type id="railway.preserved" priority="15" numLanes="1" speed="27.78" allow="rail" oneway="1"/>
    <type id="railway.rail" priority="15" numLanes="1" speed="83.33" allow="rail rail_electric" oneway="1"/>
    <type id="railway.subway" priority="15" numLanes="1" speed="27.78" allow="rail_urban" oneway="1"/>
    <type id="railway.tram" priority="15" numLanes="1" speed="13.89" allow="tram" oneway="1"/>

    <edge id=":1559811806_0" function="internal">
        <lane id=":1559811806_0_0" index="0" disallow="tram rail_urban rail rail_electric ship" speed="27.78" length="7.62" shape="2740.39,268.52 2738.60,261.09"/>
        <lane id=":1559811806_0_1" index="1" disallow="tram rail_urban rail rail_electric ship" speed="27.78" length="7.62" shape="2743.60,267.76 2741.82,260.37"/>
    </edge>
    <edge id=":1559811806_2" function="internal">
        <lane id=":1559811806_2_0" index="0" disallow="tram rail_urban rail rail_electric ship" speed="27.78" length="2.41" shape="2743.60,267.76 2744.12,266.37 2744.83,265.77"/>
    </edge>
    <edge id=":1559811806_8" function="internal">
        <lane id=":1559811806_8_0" index="0" speed="27.78" length="2.41" shape="2744.83,265.77 2745.72,265.99 2746.81,267.00"/>
    </edge>
    <edge id=":1559811806_3" function="internal">
        <lane id=":1559811806_3_0" index="0" disallow="tram rail_urban rail rail_electric ship" speed="27.78" length="7.55" shape="2748.26,258.93 2750.02,266.25"/>
        <lane id=":1559811806_3_1" index="1" disallow="tram rail_urban rail rail_electric ship" speed="27.78" length="7.55" shape="2745.04,259.65 2746.81,267.00"/>
    </edge>
    <edge id=":1559811806_5" function="internal">
        <lane id=":1559811806_5_0" index="0" disallow="tram rail_urban rail rail_electric ship" speed="27.78" length="2.41" shape="2745.04,259.65 2744.51,261.03 2743.79,261.62"/>
    </edge>
    <edge id=":1559811806_9" function="internal">
        <lane id=":1559811806_9_0" index="0" speed="27.78" length="2.41" shape="2743.79,261.62 2742.90,261.39 2741.82,260.37"/>
    </edge>
    <edge id=":1559811806_6" function="internal">
        <lane id=":1559811806_6_0" index="0" disallow="tram rail_urban rail rail_electric ship" speed="25.00" length="7.21" shape="2736.35,267.94 2738.60,261.09"/>
    </edge>
    <edge id=":1559811806_7" function="internal">
        <lane id=":1559811806_7_0" index="0" disallow="tram rail_urban rail rail_electric ship" speed="25.00" length="17.18" shape="2736.35,267.94 2739.84,262.88 2742.74,261.04 2745.06,262.42 2746.81,267.00"/>
    </edge>
    <edge id=":1559811808_0" function="internal">
        <lane id=":1559811808_0_0" index="0" disallow="tram rail_urban rail rail_electric ship" speed="22.22" length="5.49" shape="2708.11,305.30 2703.12,305.06"/>
        <lane id=":1559811808_0_1" index="1" disallow="tram rail_urban rail rail_electric ship" speed="22.22" length="5.49" shape="2708.11,305.30 2703.28,301.77"/>
    </edge>
    <edge id=":1559811808_2" function="internal">
        <lane id=":1559811808_2_0" index="0" disallow="tram rail_urban rail rail_electric ship" speed="22.22" length="19.66" shape="2708.28,302.01 2702.56,301.05 2700.64,298.92 2702.51,295.62 2708.17,291.16"/>
    </edge>
    <edge id=":1559811808_3" function="internal">
        <lane id=":1559811808_3_0" index="0" disallow="tram rail_urban rail rail_electric ship" speed="22.22" length="2.41" shape="2708.28,302.01 2707.08,301.12 2706.71,300.28"/>
    </edge>
    <edge id=":1559811808_8" function="internal">
        <lane id=":1559811808_8_0" index="0" speed="22.22" length="2.41" shape="2706.71,300.28 2707.16,299.48 2708.44,298.71"/>
    </edge>
    <edge id=":1559811808_4" function="internal">
        <lane id=":1559811808_4_0" index="0" disallow="tram rail_urban rail rail_electric ship" speed="22.22" length="6.07" shape="2703.61,295.17 2708.17,291.16"/>
    </edge>
    <edge id=":1559811808_5" function="internal">
        <lane id=":1559811808_5_0" index="0" disallow="tram rail_urban rail rail_electric ship" speed="22.22" length="5.50" shape="2703.45,298.47 2708.61,295.42"/>
        <lane id=":1559811808_5_1" index="1" disallow="tram rail_urban rail rail_electric ship" speed="22.22" length="5.50" shape="2703.45,298.47 2708.44,298.71"/>
    </edge>
    <edge id=":1559811808_7" function="internal">
        <lane id=":1559811808_7_0" index="0" disallow="tram rail_urban rail rail_electric ship" speed="22.22" length="3.10" shape="2703.45,298.47 2704.64,299.36 2705.01,300.20 2704.67,300.80"/>
    </edge>
    <edge id=":1559811808_9" function="internal">
        <lane id=":1559811808_9_0" index="0" speed="22.22" length="1.72" shape="2704.67,300.80 2704.56,301.00 2703.28,301.77"/>
    </edge>
    <edge id=":1559811825_0" function="internal">
        <lane id=":1559811825_0_0" index="0" disallow="tram rail_urban rail rail_electric ship" speed="25.00" length="12.26" shape="2852.35,349.57 2854.97,347.71 2857.19,346.31 2859.22,344.49 2861.29,341.42"/>
    </edge>
    <edge id=":1559811825_1" function="internal">
        <lane id=":1559811825_1_0" index="0" disallow="tram rail_urban rail rail_electric ship" speed="27.78" length="12.27" shape="2855.16,351.96 2856.99,348.84 2858.27,346.72 2859.53,344.59 2861.29,341.42"/>
        <lane id=":1559811825_1_1" index="1" disallow="tram rail_urban rail rail_electric ship" speed="27.78" length="12.27" shape="2858.01,353.61 2859.86,350.47 2861.15,348.33 2862.41,346.19 2864.18,343.00"/>
        <lane id=":1559811825_1_2" index="2" disallow="tram rail_urban rail rail_electric ship" speed="27.78" length="12.27" shape="2860.87,355.26 2862.73,352.10 2864.03,349.95 2865.30,347.79 2867.08,344.58"/>
    </edge>
    <edge id=":1559811829_0" function="internal">
        <lane id=":1559811829_0_0" index="0" disallow="tram rail_urban rail rail_electric ship" speed="25.00" length="7.97" shape="2838.07,440.26 2830.37,440.03"/>
        <lane id=":1559811829_0_1" index="1" disallow="tram rail_urban rail rail_electric ship" speed="25.00" length="7.97" shape="2835.74,437.92 2827.51,438.37"/>
    </edge>
    <edge id=":1559811829_2" function="internal">
        <lane id=":1559811829_2_0" index="0" disallow="tram rail_urban rail rail_electric ship" speed="27.78" length="5.00" shape="2832.93,435.75 2830.37,440.03"/>
        <lane id=":1559811829_2_1" index="1" disallow="tram rail_urban rail rail_electric ship" speed="27.78" length="5.00" shape="2830.08,434.08 2827.51,438.37"/>
        <lane id=":1559811829_2_2" index="2" disallow="tram rail_urban rail rail_electric ship" speed="27.78" length="5.00" shape="2827.23,432.41 2824.66,436.71"/>
    </edge>
    <edge id=":1563323934_0" function="internal">
        <lane id=":1563323934_0_0" index="0" allow="delivery bicycle pedestrian" speed="5.56" length="13.69" shape="3133.68,457.67 3131.66,461.53 3129.47,464.41 3127.11,466.31 3124.58,467.23"/>
    </edge>
    <edge id=":1563323934_1" function="internal">
        <lane id=":1563323934_1_0" index="0" allow="delivery bicycle pedestrian" speed="5.56" length="16.74" shape="3133.68,457.67 3130.86,462.98 3128.75,464.66 3127.34,462.70 3126.65,457.12"/>
    </edge>
    <edge id=":1563323934_2" function="internal">
        <lane id=":1563323934_2_0" index="0" allow="delivery bicycle pedestrian" speed="5.56" length="12.74" shape="3129.94,456.97 3129.77,461.10 3128.82,464.19 3127.09,466.23 3124.58,467.23"/>
    </edge>
    <edge id=":1563323934_3" function="internal">
        <lane id=":1563323934_3_0" index="0" allow="delivery bicycle pedestrian" speed="5.56" length="4.82" shape="3129.94,456.97 3129.18,458.24 3128.37,458.69 3127.53,458.32 3126.65,457.12"/>
    </edge>
    <edge id=":1563323934_4" function="internal">
        <lane id=":1563323934_4_0" index="0" allow="delivery bicycle pedestrian" speed="5.56" length="7.92" shape="3124.05,463.97 3125.30,463.36 3126.15,462.02 3126.59,459.94 3126.65,457.12"/>
    </edge>
    <edge id=":1563323934_5" function="internal">
        <lane id=":1563323934_5_0" index="0" allow="delivery bicycle pedestrian" speed="5.56" length="4.82" shape="3124.05,463.97 3125.41,464.58 3125.95,465.33 3125.67,466.21 3124.58,467.23"/>
    </edge>
    <edge id=":1564814058_0" function="internal">
        <lane id=":1564814058_0_0" index="0" disallow="tram rail_urban rail rail_electric ship" speed="13.89" length="4.82" shape="2792.57,304.25 2793.73,305.17 2794.07,306.03 2793.59,306.82 2792.29,307.53"/>
    </edge>
    <edge id=":1568545296_0" function="internal">
        <lane id=":1568545296_0_0" index="0" disallow="tram rail_urban rail rail_electric ship" speed="22.22" length="9.43" shape="2063.13,158.39 2062.53,148.98"/>
    </edge>
    <edge id=":1568545296_1" function="internal">
        <lane id=":1568545296_1_0" index="0" disallow="tram rail_urban rail rail_electric ship" speed="18.06" length="7.88" shape="2063.13,158.39 2063.20,155.58 2063.71,153.56 2064.65,152.33 2066.02,151.88"/>
    </edge>
    <edge id=":1568545296_2" function="internal">
        <lane id=":1568545296_2_0" index="0" disallow="tram rail_urban rail rail_electric ship" speed="18.06" length="7.84" shape="2066.11,155.18 2064.75,154.83 2063.69,153.68 2062.95,151.73 2062.53,148.98"/>
    </edge>
    <edge id=":1568545296_3" function="internal">
        <lane id=":1568545296_3_0" index="0" disallow="tram rail_urban rail rail_electric ship" speed="13.89" length="4.82" shape="2066.11,155.18 2064.85,154.39 2064.41,153.58 2064.80,152.74 2066.02,151.88"/>
    </edge>
    <edge id=":1572123432_0" function="internal">
        <lane id=":1572123432_0_0" index="0" allow="delivery bicycle pedestrian" speed="13.89" length="5.47" shape="2770.67,431.89 2770.28,430.36 2769.52,429.50 2768.38,429.31 2766.87,429.80"/>
    </edge>
    <edge id=":1572123432_1" function="internal">
        <lane id=":1572123432_1_0" index="0" disallow="tram rail_urban rail rail_electric ship" speed="22.22" length="9.92" shape="2770.67,431.89 2769.42,422.05"/>
    </edge>
    <edge id=":1572123432_2" function="internal">
        <lane id=":1572123432_2_0" index="0" disallow="tram rail_urban rail rail_electric ship" speed="13.89" length="6.64" shape="2765.43,426.83 2767.32,425.73 2768.62,424.57 2769.32,423.34 2769.42,422.05"/>
    </edge>
    <edge id=":1572123432_3" function="internal">
        <lane id=":1572123432_3_0" index="0" allow="delivery bicycle pedestrian" speed="5.56" length="4.82" shape="2765.43,426.83 2766.90,427.03 2767.63,427.59 2767.62,428.51 2766.87,429.80"/>
    </edge>
    <edge id=":1572123653_0" function="internal">
        <lane id=":1572123653_0_0" index="0" disallow="tram rail_urban rail rail_electric ship" speed="13.89" length="10.06" shape="2710.95,523.08 2707.99,522.76 2705.95,522.54 2703.91,522.32 2700.95,522.01"/>
    </edge>
    <edge id=":1572123653_1" function="internal">
        <lane id=":1572123653_1_0" index="0" allow="delivery bicycle pedestrian" speed="9.73" length="5.74" shape="2710.95,523.08 2707.35,522.18 2705.84,520.82"/>
    </edge>
    <edge id=":1572123653_2" function="internal">
        <lane id=":1572123653_2_0" index="0" disallow="tram rail_urban rail rail_electric ship" speed="13.89" length="2.41" shape="2710.95,523.08 2709.81,522.13 2709.49,521.26"/>
    </edge>
    <edge id=":1572123653_9" function="internal">
        <lane id=":1572123653_9_0" index="0" speed="9.73" length="6.93" shape="2705.84,520.82 2705.40,520.42 2705.09,517.82 2706.43,514.36"/>
    </edge>
    <edge id=":1572123653_10" function="internal">
        <lane id=":1572123653_10_0" index="0" speed="13.89" length="2.41" shape="2709.49,521.26 2709.99,520.49 2711.30,519.80"/>
    </edge>
    <edge id=":1572123653_3" function="internal">
        <lane id=":1572123653_3_0" index="0" disallow="tram rail_urban rail rail_electric ship" speed="9.73" length="5.58" shape="2709.31,515.96 2708.72,517.48 2708.86,518.63 2709.72,519.40 2711.30,519.80"/>
    </edge>
    <edge id=":1572123653_4" function="internal">
        <lane id=":1572123653_4_0" index="0" disallow="tram rail_urban rail rail_electric ship" speed="9.73" length="10.93" shape="2709.31,515.96 2707.43,518.79 2705.40,520.75 2703.25,521.82 2700.95,522.01"/>
    </edge>
    <edge id=":1572123653_5" function="internal">
        <lane id=":1572123653_5_0" index="0" allow="delivery bicycle pedestrian" speed="5.56" length="4.82" shape="2709.31,515.96 2707.99,516.64 2707.07,516.60 2706.55,515.84 2706.43,514.36"/>
    </edge>
    <edge id=":1572123653_6" function="internal">
        <lane id=":1572123653_6_0" index="0" allow="delivery bicycle pedestrian" speed="9.73" length="7.07" shape="2701.30,518.72 2702.58,518.55 2703.86,517.77 2705.14,516.37 2706.43,514.36"/>
    </edge>
    <edge id=":1572123653_7" function="internal">
        <lane id=":1572123653_7_0" index="0" disallow="tram rail_urban rail rail_electric ship" speed="13.89" length="10.06" shape="2701.30,518.72 2704.27,519.04 2706.30,519.26 2708.34,519.48 2711.30,519.80"/>
    </edge>
    <edge id=":1572123653_8" function="internal">
        <lane id=":1572123653_8_0" index="0" disallow="tram rail_urban rail rail_electric ship" speed="13.89" length="2.41" shape="2701.30,518.72 2702.45,519.68 2702.77,520.54"/>
    </edge>
    <edge id=":1572123653_11" function="internal">
        <lane id=":1572123653_11_0" index="0" speed="13.89" length="2.41" shape="2702.77,520.54 2702.27,521.32 2700.95,522.01"/>
    </edge>
    <edge id=":1572123659_0" function="internal">
        <lane id=":1572123659_0_0" index="0" allow="delivery bicycle pedestrian" speed="5.56" length="6.43" shape="2756.36,434.91 2751.79,439.42"/>
    </edge>
    <edge id=":1572123659_1" function="internal">
        <lane id=":1572123659_1_0" index="0" allow="delivery bicycle pedestrian" speed="5.56" length="8.85" shape="2756.36,434.91 2754.24,435.60 2752.17,435.61 2750.15,434.92 2748.17,433.54"/>
    </edge>
    <edge id=":1572123659_2" function="internal">
        <lane id=":1572123659_2_0" index="0" allow="delivery bicycle pedestrian" speed="5.56" length="4.82" shape="2756.36,434.91 2754.89,434.71 2754.16,434.14 2754.17,433.22 2754.92,431.94"/>
    </edge>
    <edge id=":1572123659_3" function="internal">
        <lane id=":1572123659_3_0" index="0" allow="delivery bicycle pedestrian" speed="5.56" length="4.95" shape="2750.36,431.07 2751.49,431.87 2752.63,432.28 2753.77,432.31 2754.92,431.94"/>
    </edge>
    <edge id=":1572123659_4" function="internal">
        <lane id=":1572123659_4_0" index="0" allow="delivery bicycle pedestrian" speed="5.56" length="9.27" shape="2750.36,431.07 2751.97,432.94 2752.75,434.96 2752.69,437.12 2751.79,439.42"/>
    </edge>
    <edge id=":1572123659_5" function="internal">
        <lane id=":1572123659_5_0" index="0" allow="delivery bicycle pedestrian" speed="5.56" length="4.82" shape="2750.36,431.07 2750.74,432.51 2750.50,433.40 2749.65,433.74 2748.17,433.54"/>
    </edge>
    <edge id=":1572123659_6" function="internal">
        <lane id=":1572123659_6_0" index="0" allow="delivery bicycle pedestrian" speed="5.56" length="4.75" shape="2748.91,437.82 2749.37,436.64 2749.40,435.53 2749.00,434.50 2748.17,433.54"/>
    </edge>
    <edge id=":1572123659_7" function="internal">
        <lane id=":1572123659_7_0" index="0" allow="delivery bicycle pedestrian" speed="5.56" length="8.41" shape="2748.91,437.82 2754.92,431.94"/>
    </edge>
    <edge id=":1572123659_8" function="internal">
        <lane id=":1572123659_8_0" index="0" allow="delivery bicycle pedestrian" speed="5.56" length="4.82" shape="2748.91,437.82 2750.23,437.14 2751.15,437.18 2751.67,437.94 2751.79,439.42"/>
    </edge>
    <edge id=":1572123728_0" function="internal">
        <lane id=":1572123728_0_0" index="0" allow="delivery bicycle pedestrian" speed="5.56" length="4.82" shape="2713.45,557.24 2712.18,558.02 2711.26,558.06 2710.68,557.34 2710.45,555.87"/>
    </edge>
    <edge id=":1572123805_0" function="internal">
        <lane id=":1572123805_0_0" index="0" allow="delivery bicycle pedestrian" speed="9.73" length="6.59" shape="2730.86,525.21 2729.58,525.36 2728.38,526.10 2727.26,527.42 2726.22,529.32"/>
    </edge>
    <edge id=":1572123805_1" function="internal">
        <lane id=":1572123805_1_0" index="0" disallow="tram rail_urban rail rail_electric ship" speed="13.89" length="9.85" shape="2730.86,525.21 2721.07,524.16"/>
    </edge>
    <edge id=":1572123805_2" function="internal">
        <lane id=":1572123805_2_0" index="0" disallow="tram rail_urban rail rail_electric ship" speed="13.89" length="2.41" shape="2730.86,525.21 2729.72,524.26 2729.40,523.40"/>
    </edge>
    <edge id=":1572123805_9" function="internal">
        <lane id=":1572123805_9_0" index="0" speed="13.89" length="2.41" shape="2729.40,523.40 2729.90,522.62 2731.21,521.93"/>
    </edge>
    <edge id=":1572123805_3" function="internal">
        <lane id=":1572123805_3_0" index="0" disallow="tram rail_urban rail rail_electric ship" speed="13.89" length="9.85" shape="2721.42,520.88 2731.21,521.93"/>
    </edge>
    <edge id=":1572123805_4" function="internal">
        <lane id=":1572123805_4_0" index="0" allow="delivery bicycle pedestrian" speed="9.73" length="5.60" shape="2721.42,520.88 2724.81,521.74 2726.39,523.13"/>
    </edge>
    <edge id=":1572123805_5" function="internal">
        <lane id=":1572123805_5_0" index="0" disallow="tram rail_urban rail rail_electric ship" speed="13.89" length="2.41" shape="2721.42,520.88 2722.56,521.83 2722.88,522.70"/>
    </edge>
    <edge id=":1572123805_10" function="internal">
        <lane id=":1572123805_10_0" index="0" speed="9.73" length="6.54" shape="2726.39,523.13 2726.74,523.43 2727.21,525.96 2726.22,529.32"/>
    </edge>
    <edge id=":1572123805_11" function="internal">
        <lane id=":1572123805_11_0" index="0" speed="13.89" length="2.41" shape="2722.88,522.70 2722.38,523.48 2721.07,524.16"/>
    </edge>
    <edge id=":1572123805_6" function="internal">
        <lane id=":1572123805_6_0" index="0" disallow="tram rail_urban rail rail_electric ship" speed="9.73" length="5.44" shape="2723.22,527.94 2723.66,526.44 2723.45,525.31 2722.59,524.55 2721.07,524.16"/>
    </edge>
    <edge id=":1572123805_7" function="internal">
        <lane id=":1572123805_7_0" index="0" disallow="tram rail_urban rail rail_electric ship" speed="9.73" length="10.72" shape="2723.22,527.94 2724.84,525.11 2726.71,523.17 2728.84,522.11 2731.21,521.93"/>
    </edge>
    <edge id=":1572123805_8" function="internal">
        <lane id=":1572123805_8_0" index="0" allow="delivery bicycle pedestrian" speed="5.56" length="4.82" shape="2723.22,527.94 2724.48,527.16 2725.40,527.13 2725.98,527.85 2726.22,529.32"/>
    </edge>
    <edge id=":1572123842_0" function="internal">
        <lane id=":1572123842_0_0" index="0" allow="delivery bicycle pedestrian" speed="5.56" length="4.82" shape="2724.29,412.41 2723.91,410.97 2724.14,410.08 2725.00,409.73 2726.47,409.94"/>
    </edge>
    <edge id=":1572144651_0" function="internal">
        <lane id=":1572144651_0_0" index="0" allow="delivery bicycle pedestrian" speed="5.56" length="9.23" shape="1227.52,430.90 1220.37,436.74"/>
    </edge>
    <edge id=":1572144651_1" function="internal">
        <lane id=":1572144651_1_0" index="0" allow="delivery bicycle pedestrian" speed="5.56" length="4.82" shape="1227.52,430.90 1226.04,430.70 1225.31,430.14 1225.33,429.21 1226.08,427.93"/>
    </edge>
    <edge id=":1572144651_2" function="internal">
        <lane id=":1572144651_2_0" index="0" allow="delivery bicycle pedestrian" speed="5.56" length="10.88" shape="1215.44,427.78 1218.63,427.51 1221.00,428.14 1223.24,428.63 1226.08,427.93"/>
    </edge>
    <edge id=":1572144651_3" function="internal">
        <lane id=":1572144651_3_0" index="0" allow="delivery bicycle pedestrian" speed="5.56" length="16.63" shape="1216.31,430.96 1222.16,429.78 1224.79,430.35 1224.19,432.67 1220.37,436.74"/>
    </edge>
    <edge id=":1572144651_4" function="internal">
        <lane id=":1572144651_4_0" index="0" allow="delivery bicycle pedestrian" speed="5.56" length="10.25" shape="1218.15,434.30 1220.32,432.19 1221.82,430.67 1223.46,429.37 1226.08,427.93"/>
    </edge>
    <edge id=":1572144651_5" function="internal">
        <lane id=":1572144651_5_0" index="0" allow="delivery bicycle pedestrian" speed="5.56" length="4.82" shape="1218.15,434.30 1219.62,434.08 1220.48,434.41 1220.73,435.30 1220.37,436.74"/>
    </edge>
    <edge id=":1572144677_0" function="internal">
        <lane id=":1572144677_0_0" index="0" allow="delivery bicycle pedestrian" speed="5.56" length="5.42" shape="1186.14,467.89 1180.76,467.24"/>
    </edge>
    <edge id=":1572144677_1" function="internal">
        <lane id=":1572144677_1_0" index="0" allow="delivery bicycle pedestrian" speed="5.56" length="4.82" shape="1186.14,467.89 1184.67,468.11 1183.81,467.78 1183.56,466.89 1183.92,465.45"/>
    </edge>
    <edge id=":1572144743_0" function="internal">
        <lane id=":1572144743_0_0" index="0" allow="delivery bicycle pedestrian" speed="13.89" length="9.63" shape="1284.77,402.06 1276.63,407.21"/>
    </edge>
    <edge id=":1572144743_1" function="internal">
        <lane id=":1572144743_1_0" index="0" disallow="tram rail_urban rail rail_electric ship" speed="22.22" length="10.28" shape="1284.77,402.06 1281.80,402.24 1279.74,401.86 1277.70,401.13 1274.79,400.22"/>
    </edge>
    <edge id=":1572144743_2" function="internal">
        <lane id=":1572144743_2_0" index="0" disallow="tram rail_urban rail rail_electric ship" speed="13.89" length="7.05" shape="1275.19,404.23 1277.16,403.02 1277.74,401.95 1276.96,401.02 1274.79,400.22"/>
    </edge>
    <edge id=":1572144743_3" function="internal">
        <lane id=":1572144743_3_0" index="0" allow="delivery bicycle pedestrian" speed="5.56" length="4.82" shape="1275.19,404.23 1276.67,404.44 1277.40,405.00 1277.38,405.92 1276.63,407.21"/>
    </edge>
    <edge id=":1572144752_0" function="internal">
        <lane id=":1572144752_0_0" index="0" allow="delivery bicycle pedestrian" speed="5.56" length="7.34" shape="1132.56,481.87 1126.11,485.36"/>
    </edge>
    <edge id=":1572144752_1" function="internal">
        <lane id=":1572144752_1_0" index="0" allow="delivery bicycle pedestrian" speed="5.56" length="11.78" shape="1132.56,481.87 1127.87,483.05 1125.54,483.04 1125.57,481.84 1127.98,479.43"/>
    </edge>
    <edge id=":1572144752_2" function="internal">
        <lane id=":1572144752_2_0" index="0" allow="delivery bicycle pedestrian" speed="5.56" length="5.85" shape="1124.37,482.56 1125.86,476.90"/>
    </edge>
    <edge id=":1572144752_3" function="internal">
        <lane id=":1572144752_3_0" index="0" allow="delivery bicycle pedestrian" speed="5.56" length="4.82" shape="1124.37,482.56 1125.85,482.61 1126.64,483.09 1126.73,484.01 1126.11,485.36"/>
    </edge>
    <edge id=":1688843667_0" function="internal">
        <lane id=":1688843667_0_0" index="0" allow="delivery bicycle pedestrian" speed="5.56" length="4.82" shape="2914.37,74.89 2913.48,73.70 2913.37,72.78 2914.03,72.14 2915.48,71.78"/>
    </edge>
    <edge id=":1688843682_0" function="internal">
        <lane id=":1688843682_0_0" index="0" disallow="tram rail_urban rail rail_electric bicycle pedestrian ship" speed="27.78" length="0.10" shape="3138.34,306.74 3138.25,306.71"/>
        <lane id=":1688843682_0_1" index="1" disallow="tram rail_urban rail rail_electric bicycle pedestrian ship" speed="27.78" length="0.10" shape="3137.34,309.88 3137.43,309.91"/>
    </edge>
    <edge id=":1934205762_0" function="internal">
        <lane id=":1934205762_0_0" index="0" disallow="tram rail_urban rail rail_electric bicycle pedestrian ship" speed="27.78" length="6.20" shape="70.92,638.70 76.94,637.22"/>
        <lane id=":1934205762_0_1" index="1" disallow="tram rail_urban rail rail_electric bicycle pedestrian ship" speed="27.78" length="6.20" shape="71.70,641.91 77.73,640.43"/>
    </edge>
    <edge id=":1934205762_2" function="internal">
        <lane id=":1934205762_2_0" index="0" disallow="tram rail_urban rail rail_electric ship" speed="21.71" length="5.00" shape="71.70,641.91 73.07,641.77 74.15,642.11 74.94,642.91 75.45,644.19"/>
    </edge>
    <edge id=":2344462662_0" function="internal">
        <lane id=":2344462662_0_0" index="0" allow="delivery bicycle pedestrian" speed="5.56" length="4.82" shape="2107.96,724.24 2109.12,725.18 2109.45,726.04 2108.97,726.82 2107.66,727.53"/>
    </edge>
    <edge id=":2402962022_0" function="internal">
        <lane id=":2402962022_0_0" index="0" allow="delivery bicycle pedestrian" speed="13.89" length="5.01" shape="2388.10,288.95 2386.73,289.08 2385.74,289.61 2385.10,290.55 2384.84,291.90"/>
    </edge>
    <edge id=":2402962022_1" function="internal">
        <lane id=":2402962022_1_0" index="0" disallow="tram rail_urban rail rail_electric ship" speed="22.22" length="9.50" shape="2388.10,288.95 2378.61,288.46"/>
        <lane id=":2402962022_1_1" index="1" disallow="tram rail_urban rail rail_electric ship" speed="22.22" length="9.50" shape="2388.27,285.66 2378.78,285.17"/>
    </edge>
    <edge id=":2402962022_3" function="internal">