<?xml version="1.0"?>
<!-- generated on 2016-06-04 15:50:54.114000 by $Id: randomTrips.py 19495 2015-12-02 12:36:28Z behrisch $
  options: -n map.net.xml -r map.rou.xml -e 100 -l
-->
<trips>
    <trip id="0" depart="0.00" from="5976858#1" to="5979291#1" />
    <trip id="1" depart="1.00" from="-143329356#0" to="5986247#1" />
    <trip id="2" depart="2.00" from="49187078#3" to="50846755#0" />
    <trip id="3" depart="3.00" from="5988429#0" to="49187078#5" />
    <trip id="4" depart="4.00" from="-50846720#6" to="-143655135#0" />
    <trip id="5" depart="5.00" from="49187078#5" to="-50846782#1" />
    <trip id="6" depart="6.00" from="50846726#0" to="50846720#4" />
    <trip id="7" depart="7.00" from="-143329356#0" to="-143329356#0" />
    <trip id="8" depart="8.00" from="143655141" to="143329372" />
    <trip id="9" depart="9.00" from="50846755#2" to="5986247#2" />
    <trip id="10" depart="10.00" from="50846724#0" to="49187078#1" />
    <trip id="11" depart="11.00" from="-50846713#1" to="50846782#2" />
    <trip id="12" depart="12.00" from="-5972214#1" to="-50846720#1" />
    <trip id="13" depart="13.00" from="5967019" to="143655840#1" />
    <trip id="14" depart="14.00" from="116069075#1" to="5967694" />
    <trip id="15" depart="15.00" from="387597533" to="50846755#0" />
    <trip id="16" depart="16.00" from="50846710#1" to="-50846782#0" />
    <trip id="17" depart="17.00" from="49187078#3" to="50846720#3" />
    <trip id="18" depart="18.00" from="-5968215#0" to="116069075#0" />
    <trip id="19" depart="19.00" from="-5968215#0" to="116069075#1" />
    <trip id="20" depart="20.00" from="50846720#1" to="50846728" />
    <trip id="21" depart="21.00" from="-5991369#3" to="50846753" />
    <trip id="22" depart="22.00" from="5968215#0" to="-143655142" />
    <trip id="23" depart="23.00" from="5977975" to="-244626184#2" />
    <trip id="24" depart="24.00" from="143655135#1" to="50846720#12" />
    <trip id="25" depart="25.00" from="-5968215#2" to="-50846720#9" />
    <trip id="26" depart="26.00" from="-143329356#1" to="-50846720#12" />
    <trip id="27" depart="27.00" from="76697655#0" to="50846755#0" />
    <trip id="28" depart="28.00" from="76697654#1" to="5968215#0" />
    <trip id="29" depart="29.00" from="50846755#2" to="50846755#0" />
    <trip id="30" depart="30.00" from="143329356#1" to="50846765" />
    <trip id="31" depart="31.00" from="-5968215#2" to="143329356#0" />
    <trip id="32" depart="32.00" from="49187078#5" to="50846755#3" />
    <trip id="33" depart="33.00" from="50846726#0" to="143329356#0" />
    <trip id="34" depart="34.00" from="50846755#4" to="-76697654#2" />
    <trip id="35" depart="35.00" from="-28749853" to="5972515" />
    <trip id="36" depart="36.00" from="-244626184#1" to="5982169#0" />
    <trip id="37" depart="37.00" from="49187078#3" to="363235688#0" />
    <trip id="38" depart="38.00" from="114850054#1" to="5968215#0" />
    <trip id="39" depart="39.00" from="244626184#2" to="243728741#3" />
    <trip id="40" depart="40.00" from="-50846765" to="50846755#0" />
    <trip id="41" depart="41.00" from="50846782#1" to="-5968215#0" />
    <trip id="42" depart="42.00" from="116069075#0" to="50846755#2" />
    <trip id="43" depart="43.00" from="5976858#0" to="-5971039#1" />
    <trip id="44" depart="44.00" from="-5986247#2" to="49187078#3" />
    <trip id="45" depart="45.00" from="5968215#0" to="-5971039#3" />
    <trip id="46" depart="46.00" from="50846755#2" to="50846755#0" />
    <trip id="47" depart="47.00" from="5982169#0" to="-89534885" />
    <trip id="48" depart="48.00" from="50846765" to="50846755#2" />
    <trip id="49" depart="49.00" from="89534893" to="244626213#3" />
    <trip id="50" depart="50.00" from="-5991176" to="-5971039#3" />
    <trip id="51" depart="51.00" from="116069075#0" to="76697634#1" />
    <trip id="52" depart="52.00" from="5986247#2" to="50846755#0" />
    <trip id="53" depart="53.00" from="26467810" to="114850085#1" />
    <trip id="54" depart="54.00" from="-5991368#1" to="-5968278" />
    <trip id="55" depart="55.00" from="5991176" to="5979291#1" />
    <trip id="56" depart="56.00" from="49187078#3" to="50846782#1" />
    <trip id="57" depart="57.00" from="116069075#1" to="143655853" />
    <trip id="58" depart="58.00" from="5972515" to="-5988429#1" />
    <trip id="59" depart="59.00" from="-142530979" to="49187078#3" />
    <trip id="60" depart="60.00" from="5986247#2" to="5968215#3" />
    <trip id="61" depart="61.00" from="5971039#1" to="243728741#3" />
    <trip id="62" depart="62.00" from="-5979291#1" to="-50846769" />
    <trip id="63" depart="63.00" from="-5972921" to="49187078#5" />
    <trip id="64" depart="64.00" from="49187078#2" to="49187078#3" />
    <trip id="65" depart="65.00" from="-5968215#3" to="-142530979" />
    <trip id="66" depart="66.00" from="-5972921" to="-5971039#3" />
    <trip id="67" depart="67.00" from="50846755#2" to="-89534885" />
    <trip id="68" depart="68.00" from="5982169#2" to="5982169#1" />
    <trip id="69" depart="69.00" from="-5988429#0" to="-5974128" />
    <trip id="70" depart="70.00" from="49187078#2" to="244626184#2" />
    <trip id="71" depart="71.00" from="-5976858#1" to="243728741#3" />
    <trip id="72" depart="72.00" from="243728741#0" to="50846755#3" />
    <trip id="73" depart="73.00" from="5991176" to="243728741#1" />
    <trip id="74" depart="74.00" from="-50846720#4" to="-5972211#1" />
    <trip id="75" depart="75.00" from="-5972214#0" to="-142530979" />
    <trip id="76" depart="76.00" from="-143655853" to="116069186#1" />
    <trip id="77" depart="77.00" from="-5991176" to="5991369#1" />
    <trip id="78" depart="78.00" from="49187078#5" to="243728741#3" />
    <trip id="79" depart="79.00" from="-5976858#1" to="49187078#3" />
    <trip id="80" depart="80.00" from="5982169#2" to="-143329370" />
    <trip id="81" depart="81.00" from="50846710#1" to="50846724#0" />
    <trip id="82" depart="82.00" from="-5972515" to="143655835#0" />
    <trip id="83" depart="83.00" from="5972211#1" to="114850085#0" />
    <trip id="84" depart="84.00" from="-244626184#2" to="-5968215#0" />
    <trip id="85" depart="85.00" from="-143655838" to="50846755#3" />
    <trip id="86" depart="86.00" from="49187078#5" to="-5968215#0" />
    <trip id="87" depart="87.00" from="143655835#0" to="50846753" />
    <trip id="88" depart="88.00" from="-143329356#0" to="28749905" />
    <trip id="89" depart="89.00" from="-143329356#0" to="-142865467" />
    <trip id="90" depart="90.00" from="50846720#10" to="116069075#1" />
    <trip id="91" depart="91.00" from="-143655135#1" to="143655135#1" />
    <trip id="92" depart="92.00" from="142865480" to="-5972211#1" />
    <trip id="93" depart="93.00" from="5982169#1" to="-5986247#1" />
    <trip id="94" depart="94.00" from="50846744" to="-143655838" />
    <trip id="95" depart="95.00" from="-5979291#1" to="5972214#1" />
    <trip id="96" depart="96.00" from="116069261" to="5987516" />
    <trip id="97" depart="97.00" from="5972214#0" to="-143655838" />
    <trip id="98" depart="98.00" from="5988429#0" to="-5971039#0" />
    <trip id="99" depart="99.00" from="-5979291#1" to="50846755#3" />
</trips>
