<additional>
	
	<e1Detector id="sensor" lane="2o_0" pos="4" freq="1" file="sensor.out"/>

</additional> 
