<types>
	<type id="a" priority="1" numLanes="1" speed = "100.0" />
</types>