<nodes>
	<node id="1" x="-1000.0" y="0.0" />
	<node id="2" x="1000" y="0.0" />

</nodes>