<additional>
	<!--<tlLogic id="1" type="static" programID="1" offset="0">
		<phase duration="31" state="rrrrrrGGGggrrrrrrGGGGgg"/>
		<phase duration="4" state="rrrrrryyyggrrrrrryyyygg"/>
		<phase duration="6" state="rrrrrrrrrGGrrrrrrrrrrGG"/>
		<phase duration="4" state="rrrrrrrrryyrrrrrrrrrryy"/>
		<phase duration="31" state="GGGGggrrrrrggGgggrrrrrr"/>
		<phase duration="4" state="yyyyggrrrrryyygyyrrrrrr"/>
		<phase duration="6" state="rrrrGGrrrrrrrrGrrrrrrrr"/>
		<phase duration="4" state="rrrryyrrrrrrrryrrrrrrrr"/>
	</tlLogic>
	<tlLogic id="19" type="static" programID="19" offset="0">
		<phase duration="31" state="GGgrrGGG"/>
		<phase duration="4" state="yygrryyy"/>
		<phase duration="6" state="rrGrrrrr"/>
		<phase duration="4" state="rryrrrrr"/>
		<phase duration="31" state="rrrGGGrr"/>
		<phase duration="4" state="rrryyyrr"/>
	</tlLogic>
	<tlLogic id="21" type="static" programID="21" offset="0">
		<phase duration="31" state="GGGgrrrGGG"/>
		<phase duration="4" state="yyygrrryyy"/>
		<phase duration="6" state="rrrGrrrrrr"/>
		<phase duration="4" state="rrryrrrrrr"/>
		<phase duration="31" state="rrrrGGGGrr"/>
		<phase duration="4" state="rrrryyyyrr"/>
	</tlLogic>
	<tlLogic id="30" type="static" programID="30" offset="0">
		<phase duration="31" state="rrGGGGGGgg"/>
		<phase duration="4" state="rryyyyyygg"/>
		<phase duration="6" state="rrrrrrrrGG"/>
		<phase duration="4" state="rrrrrrrryy"/>
		<phase duration="31" state="GGGGrrrrrr"/>
		<phase duration="4" state="yyyyrrrrrr"/>
	</tlLogic>
	<tlLogic id="40" type="static" programID="40" offset="0">
		<phase duration="31" state="GGgggGGGGG"/>
		<phase duration="4" state="yygggyyyyy"/>
		<phase duration="6" state="rrGGGrrrrr"/>
		<phase duration="4" state="rryyyrrrrr"/>
	</tlLogic>
	<tlLogic id="43" type="static" programID="43" offset="0">
		<phase duration="31" state="GGrrrGGGGgrrr"/>
		<phase duration="4" state="yyrrryyyygrrr"/>
		<phase duration="6" state="rrrrrrrrrGrrr"/>
		<phase duration="4" state="rrrrrrrrryrrr"/>
		<phase duration="31" state="rrGGGrrrrrGGg"/>
		<phase duration="4" state="rryyyrrrrryyg"/>
		<phase duration="6" state="rrrrrrrrrrrrG"/>
		<phase duration="4" state="rrrrrrrrrrrry"/>
	</tlLogic>
	<tlLogic id="47" type="static" programID="47" offset="0">
		<phase duration="31" state="GGGggrrrrGGGggrrrr"/>
		<phase duration="4" state="yyyggrrrryyyggrrrr"/>
		<phase duration="6" state="rrrGGrrrrrrrGGrrrr"/>
		<phase duration="4" state="rrryyrrrrrrryyrrrr"/>
		<phase duration="31" state="rrrrrGGGgrrrrrGGGg"/>
		<phase duration="4" state="rrrrryyygrrrrryyyg"/>
		<phase duration="6" state="rrrrrrrrGrrrrrrrrG"/>
		<phase duration="4" state="rrrrrrrryrrrrrrrry"/>
	</tlLogic>
	<tlLogic id="52" type="static" programID="52" offset="0">
		<phase duration="31" state="GGGgrrrGGGgrrr"/>
		<phase duration="4" state="yyygrrryyygrrr"/>
		<phase duration="6" state="rrrGrrrrrrGrrr"/>
		<phase duration="4" state="rrryrrrrrryrrr"/>
		<phase duration="31" state="rrrrGGgrrrrGGg"/>
		<phase duration="4" state="rrrryygrrrryyg"/>
		<phase duration="6" state="rrrrrrGrrrrrrG"/>
		<phase duration="4" state="rrrrrryrrrrrry"/>
	</tlLogic>
	<tlLogic id="57" type="static" programID="57" offset="0">
		<phase duration="31" state="GGGgrrrrGGGgrrrr"/>
		<phase duration="4" state="yyygrrrryyygrrrr"/>
		<phase duration="6" state="rrrGrrrrrrrGrrrr"/>
		<phase duration="4" state="rrryrrrrrrryrrrr"/>
		<phase duration="31" state="rrrrGGGgrrrrGGGg"/>
		<phase duration="4" state="rrrryyygrrrryyyg"/>
		<phase duration="6" state="rrrrrrrGrrrrrrrG"/>
		<phase duration="4" state="rrrrrrryrrrrrrry"/>
	</tlLogic>
	<tlLogic id="64" type="static" programID="64" offset="0">
		<phase duration="31" state="GGGgrrrGGGgrrr"/>
		<phase duration="4" state="yyygrrryyygrrr"/>
		<phase duration="6" state="rrrGrrrrrrGrrr"/>
		<phase duration="4" state="rrryrrrrrryrrr"/>
		<phase duration="31" state="rrrrGGgrrrrGGg"/>
		<phase duration="4" state="rrrryygrrrryyg"/>
		<phase duration="6" state="rrrrrrGrrrrrrG"/>
		<phase duration="4" state="rrrrrryrrrrrry"/>
	</tlLogic>
	<tlLogic id="69" type="static" programID="69" offset="0">
		<phase duration="31" state="rrrGGGgrrrGGGg"/>
		<phase duration="4" state="rrryyygrrryyyg"/>
		<phase duration="6" state="rrrrrrGrrrrrrG"/>
		<phase duration="4" state="rrrrrryrrrrrry"/>
		<phase duration="31" state="GGgrrrrGGgrrrr"/>
		<phase duration="4" state="yygrrrryygrrrr"/>
		<phase duration="6" state="rrGrrrrrrGrrrr"/>
		<phase duration="4" state="rryrrrrrryrrrr"/>
	</tlLogic>
	<tlLogic id="73" type="static" programID="73" offset="0">
		<phase duration="31" state="GGgrrGGGGrrrr"/>
		<phase duration="4" state="yygrryyyyrrrr"/>
		<phase duration="6" state="rrGrrrrrrrrrr"/>
		<phase duration="4" state="rryrrrrrrrrrr"/>
		<phase duration="31" state="rrrGgrrrrGGgg"/>
		<phase duration="4" state="rrrygrrrryygg"/>
		<phase duration="6" state="rrrrGrrrrrrGG"/>
		<phase duration="4" state="rrrryrrrrrryy"/>
	</tlLogic>-->
	<tlLogic id="81" type="static" programID="81" offset="45">
		<phase duration="35" state="GGGGGGGgrrrrr"/>
		<phase duration="4" state="yyyyyyyyrrrrr"/>
		<phase duration="1" state="rrrrrrrrrrrrr"/>
		<phase duration="25" state="rrrrrrrrggggg"/>
		<phase duration="4" state="rrrrrrrryyyyy"/>
		<phase duration="1" state="rrrrrrrrrrrrr"/>
	</tlLogic>
</additional>