<?xml version="1.0" encoding="UTF-8"?>

<!-- generated on 01/25/16 19:01:22 by SUMO netconvert Version 0.24.0
<?xml version="1.0" encoding="UTF-8"?>

<configuration xmlns:xsi="http://www.w3.org/2001/XMLSchema-instance" xsi:noNamespaceSchemaLocation="http://sumo.dlr.de/xsd/netconvertConfiguration.xsd">

    <input>
        <node-files value="huntingtonColorado3.nod.xml"/>
        <edge-files value="huntingtonColorado3.edg.xml"/>
        <connection-files value="huntingtonColorado3.con.xml"/>
        <tllogic-files value="huntingtonColorado3.add.xml"/>
        <type-files value="huntingtonColorado3.typ.xml"/>
    </input>

    <output>
        <output-file value="huntingtonColorado3.net.xml"/>
    </output>

    <processing>
        <no-turnarounds value="true"/>
    </processing>

</configuration>
-->

<net version="0.13" xmlns:xsi="http://www.w3.org/2001/XMLSchema-instance" xsi:noNamespaceSchemaLocation="http://sumo.dlr.de/xsd/net_file.xsd">

    <location netOffset="283.10,993.90" convBoundary="0.00,0.00,5020.80,1212.40" origBoundary="-283.10,-993.90,4737.70,218.50" projParameter="!"/>

    <type id="a" priority="3" numLanes="1" speed="14.00"/>
    <type id="b" priority="3" numLanes="2" speed="14.00"/>
    <type id="c" priority="3" numLanes="3" speed="14.00"/>
    <type id="d" priority="3" numLanes="4" speed="14.00"/>
    <type id="e" priority="3" numLanes="5" speed="14.00"/>

    <edge id=":1_0" function="internal">
        <lane id=":1_0_0" index="0" speed="14.00" length="5.83" shape="81.92,971.10 81.64,969.91 81.07,968.98 80.20,968.31 79.05,967.90"/>
        <lane id=":1_0_1" index="1" speed="14.00" length="5.83" shape="81.92,971.10 81.55,968.42 81.06,966.45 80.46,965.20 79.74,964.67"/>
    </edge>
    <edge id=":1_2" function="internal">
        <lane id=":1_2_0" index="0" speed="14.00" length="11.07" shape="85.20,970.77 84.89,967.57 84.71,965.38 84.64,963.19 84.59,959.98"/>
        <lane id=":1_2_1" index="1" speed="14.00" length="11.07" shape="85.20,970.77 85.39,967.52 86.36,965.36 87.42,963.20 87.89,959.94"/>
    </edge>
    <edge id=":1_4" function="internal">
        <lane id=":1_4_0" index="0" speed="14.00" length="8.73" shape="88.49,970.43 89.03,965.89 91.51,963.43"/>
        <lane id=":1_4_1" index="1" speed="14.00" length="8.73" shape="88.49,970.43 89.12,967.39 91.77,965.70 94.90,965.48"/>
    </edge>
    <edge id=":1_23" function="internal">
        <lane id=":1_23_0" index="0" speed="14.00" length="12.57" shape="91.51,963.43 91.77,963.17 96.70,962.26 103.83,963.16"/>
    </edge>
    <edge id=":1_24" function="internal">
        <lane id=":1_24_0" index="0" speed="14.00" length="8.31" shape="94.90,965.48 96.43,965.37 103.12,966.38"/>
    </edge>
    <edge id=":1_6" function="internal">
        <lane id=":1_6_0" index="0" speed="14.00" length="10.13" shape="100.29,979.27 99.81,978.58 99.32,976.70 98.83,973.65 98.34,969.42"/>
    </edge>
    <edge id=":1_7" function="internal">
        <lane id=":1_7_0" index="0" speed="14.00" length="24.35" shape="100.29,979.27 93.38,976.70 88.92,973.40 84.84,970.20 79.05,967.90"/>
        <lane id=":1_7_1" index="1" speed="14.00" length="24.35" shape="101.00,976.05 94.08,973.48 89.62,970.18 85.53,966.97 79.74,964.67"/>
    </edge>
    <edge id=":1_9" function="internal">
        <lane id=":1_9_0" index="0" speed="14.00" length="21.75" shape="101.71,972.83 94.26,970.62 88.92,967.75 85.70,964.20 84.59,959.98"/>
        <lane id=":1_9_1" index="1" speed="14.00" length="21.75" shape="101.71,972.83 95.70,970.89 91.40,968.10 88.80,964.45 87.89,959.94"/>
    </edge>
    <edge id=":1_11" function="internal">
        <lane id=":1_11_0" index="0" speed="14.00" length="18.01" shape="101.09,959.79 99.77,965.12 95.65,968.25 88.75,969.18 86.91,968.94"/>
        <lane id=":1_11_1" index="1" speed="14.00" length="18.01" shape="101.09,959.79 99.80,963.65 95.81,965.75 89.12,966.09 87.88,965.90"/>
    </edge>
    <edge id=":1_13" function="internal">
        <lane id=":1_13_0" index="0" speed="14.00" length="9.61" shape="97.79,959.83 98.34,969.42"/>
    </edge>
    <edge id=":1_14" function="internal">
        <lane id=":1_14_0" index="0" speed="14.00" length="7.27" shape="94.49,959.87 92.87,962.36 91.23,963.20 89.57,962.40 89.23,961.89"/>
    </edge>
    <edge id=":1_15" function="internal">
        <lane id=":1_15_0" index="0" speed="14.00" length="6.29" shape="91.19,959.90 91.98,960.29 94.35,960.96 96.28,961.42"/>
        <lane id=":1_15_1" index="1" speed="14.00" length="6.29" shape="91.19,959.90 91.95,961.76 94.20,963.46 96.45,964.39"/>
    </edge>
    <edge id=":1_25" function="internal">
        <lane id=":1_25_0" index="0" speed="14.00" length="7.94" shape="86.91,968.94 79.05,967.90"/>
    </edge>
    <edge id=":1_26" function="internal">
        <lane id=":1_26_0" index="0" speed="14.00" length="8.23" shape="87.88,965.90 79.74,964.67"/>
    </edge>
    <edge id=":1_27" function="internal">
        <lane id=":1_27_0" index="0" speed="14.00" length="2.36" shape="89.23,961.89 87.89,959.94"/>
    </edge>
    <edge id=":1_28" function="internal">
        <lane id=":1_28_0" index="0" speed="14.00" length="7.75" shape="96.28,961.42 98.30,961.91 103.83,963.16"/>
    </edge>
    <edge id=":1_29" function="internal">
        <lane id=":1_29_0" index="0" speed="14.00" length="6.98" shape="96.45,964.39 97.92,965.00 103.12,966.38"/>
    </edge>
    <edge id=":1_17" function="internal">
        <lane id=":1_17_0" index="0" speed="14.00" length="12.41" shape="83.20,948.54 83.76,949.35 84.18,951.53 84.46,955.07 84.59,959.98"/>
        <lane id=":1_17_1" index="1" speed="14.00" length="12.41" shape="83.20,948.54 85.21,949.62 86.66,951.88 87.56,955.32 87.89,959.94"/>
    </edge>
    <edge id=":1_19" function="internal">
        <lane id=":1_19_0" index="0" speed="14.00" length="24.41" shape="82.51,951.76 89.45,954.31 93.94,957.61 98.04,960.83 103.83,963.16"/>
        <lane id=":1_19_1" index="1" speed="14.00" length="24.41" shape="81.82,954.99 88.76,957.54 93.24,960.83 97.33,964.05 103.12,966.38"/>
    </edge>
    <edge id=":1_21" function="internal">
        <lane id=":1_21_0" index="0" speed="14.00" length="19.68" shape="81.13,958.22 88.36,960.24 93.64,962.78 96.97,965.84 98.34,969.42"/>
        <lane id=":1_21_1" index="1" speed="14.00" length="19.68" shape="80.43,961.44 86.63,963.10 91.13,965.03 93.94,967.26 95.05,969.76"/>
    </edge>
    <edge id=":10_0" function="internal">
        <lane id=":10_0_0" index="0" speed="14.00" length="2.77" shape="153.78,1100.28 153.73,1099.93 153.62,1099.62 153.43,1099.34 153.19,1099.10"/>
        <lane id=":10_0_1" index="1" speed="14.00" length="2.77" shape="157.08,1100.13 156.93,1099.08 156.57,1098.12 156.02,1097.27 155.25,1096.53"/>
    </edge>
    <edge id=":11_0" function="internal">
        <lane id=":11_0_0" index="0" speed="14.00" length="2.94" shape="153.86,1116.42 154.12,1116.15 154.30,1115.85 154.40,1115.51 154.42,1115.14"/>
        <lane id=":11_0_1" index="1" speed="14.00" length="2.94" shape="156.02,1118.92 156.80,1118.09 157.34,1117.17 157.65,1116.13 157.72,1115.00"/>
    </edge>
    <edge id=":12_0" function="internal">
        <lane id=":12_0_0" index="0" speed="14.00" length="2.97" shape="137.94,1129.31 138.31,1129.35 138.67,1129.30 139.00,1129.17 139.30,1128.95"/>
        <lane id=":12_0_1" index="1" speed="14.00" length="2.97" shape="137.28,1132.54 138.43,1132.65 139.50,1132.51 140.51,1132.11 141.46,1131.45"/>
    </edge>
    <edge id=":13_0" function="internal">
        <lane id=":13_0_0" index="0" speed="14.00" length="1.63" shape="119.93,1125.44 120.65,1125.79"/>
        <lane id=":13_0_1" index="1" speed="14.00" length="1.63" shape="117.78,1127.95 119.99,1129.02"/>
    </edge>
    <edge id=":14_0" function="internal">
        <lane id=":14_0_0" index="0" speed="14.00" length="7.06" shape="76.58,967.37 69.51,964.45"/>
        <lane id=":14_0_1" index="1" speed="14.00" length="7.06" shape="77.28,964.14 71.29,961.67"/>
    </edge>
    <edge id=":14_2" function="internal">
        <lane id=":14_2_0" index="0" speed="14.00" length="2.93" shape="80.21,947.79 80.74,948.01"/>
        <lane id=":14_2_1" index="1" speed="14.00" length="2.93" shape="78.43,950.57 80.05,951.24"/>
        <lane id=":14_2_2" index="2" speed="14.00" length="2.93" shape="76.64,953.34 79.36,954.46"/>
        <lane id=":14_2_3" index="3" speed="14.00" length="2.93" shape="74.86,956.12 78.66,957.69"/>
        <lane id=":14_2_4" index="4" speed="14.00" length="2.93" shape="73.08,958.90 77.97,960.91"/>
    </edge>
    <edge id=":15_0" function="internal">
        <lane id=":15_0_0" index="0" speed="14.00" length="0.29" shape="104.40,980.19 103.90,980.07"/>
        <lane id=":15_0_1" index="1" speed="14.00" length="0.29" shape="105.11,976.96 104.77,976.88"/>
        <lane id=":15_0_2" index="2" speed="14.00" length="0.29" shape="105.82,973.73 105.63,973.69"/>
        <lane id=":15_0_3" index="3" speed="14.00" length="0.29" shape="106.47,970.49 106.55,970.51"/>
    </edge>
    <edge id=":15_4" function="internal">
        <lane id=":15_4_0" index="0" speed="14.00" length="0.17" shape="107.96,964.07 108.19,964.12"/>
        <lane id=":15_4_1" index="1" speed="14.00" length="0.17" shape="107.25,967.29 107.33,967.31"/>
    </edge>
    <edge id=":16_0" function="internal">
        <lane id=":16_0_0" index="0" speed="14.00" length="1.74" shape="99.45,980.28 99.54,982.40"/>
        <lane id=":16_0_1" index="1" speed="14.00" length="1.74" shape="96.17,980.62 96.24,982.35"/>
        <lane id=":16_0_2" index="2" speed="14.00" length="1.74" shape="92.88,980.96 92.94,982.30"/>
    </edge>
    <edge id=":16_3" function="internal">
        <lane id=":16_3_0" index="0" speed="14.00" length="0.57" shape="83.04,982.15 83.03,981.96"/>
        <lane id=":16_3_1" index="1" speed="14.00" length="0.57" shape="86.34,982.20 86.32,981.63"/>
        <lane id=":16_3_2" index="2" speed="14.00" length="0.57" shape="89.64,982.25 89.60,981.29"/>
    </edge>
    <edge id=":17_0" function="internal">
        <lane id=":17_0_0" index="0" speed="14.00" length="0.11" shape="84.45,947.36 84.45,947.24"/>
        <lane id=":17_0_1" index="1" speed="14.00" length="0.11" shape="87.75,947.32 87.75,947.28"/>
    </edge>
    <edge id=":17_2" function="internal">
        <lane id=":17_2_0" index="0" speed="14.00" length="0.14" shape="100.95,947.19 100.95,947.41"/>
        <lane id=":17_2_1" index="1" speed="14.00" length="0.14" shape="97.65,947.23 97.65,947.37"/>
        <lane id=":17_2_2" index="2" speed="14.00" length="0.14" shape="94.35,947.36 94.35,947.24"/>
        <lane id=":17_2_3" index="3" speed="14.00" length="0.14" shape="91.05,947.32 91.05,947.28"/>
    </edge>
    <edge id=":18_0" function="internal">
        <lane id=":18_0_0" index="0" speed="14.00" length="0.10" shape="1583.44,1009.95 1583.46,1009.95"/>
        <lane id=":18_0_1" index="1" speed="14.00" length="0.10" shape="1583.48,1006.65 1583.49,1006.65"/>
    </edge>
    <edge id=":18_2" function="internal">
        <lane id=":18_2_0" index="0" speed="14.00" length="0.10" shape="1583.56,1000.05 1583.56,1000.05"/>
        <lane id=":18_2_1" index="1" speed="14.00" length="0.10" shape="1583.52,1003.35 1583.52,1003.35"/>
    </edge>
    <edge id=":19_0" function="internal">
        <lane id=":19_0_0" index="0" speed="14.00" length="10.22" shape="1673.61,1014.41 1670.72,1013.86 1668.89,1012.70 1667.06,1011.54 1664.17,1010.98"/>
        <lane id=":19_0_1" index="1" speed="14.00" length="10.22" shape="1673.66,1011.11 1670.77,1010.56 1668.93,1009.40 1667.10,1008.24 1664.21,1007.68"/>
    </edge>
    <edge id=":19_2" function="internal">
        <lane id=":19_2_0" index="0" speed="14.00" length="4.32" shape="1673.71,1007.81 1671.06,1007.16 1669.91,1006.06"/>
    </edge>
    <edge id=":19_8" function="internal">
        <lane id=":19_8_0" index="0" speed="14.00" length="8.72" shape="1669.91,1006.06 1669.12,1005.30 1667.89,1002.23 1667.36,997.95"/>
    </edge>
    <edge id=":19_3" function="internal">
        <lane id=":19_3_0" index="0" speed="14.00" length="5.20" shape="1670.66,997.83 1670.90,999.29 1671.50,1000.35 1672.47,1000.99 1673.80,1001.21"/>
    </edge>
    <edge id=":19_4" function="internal">
        <lane id=":19_4_0" index="0" speed="14.00" length="13.42" shape="1670.66,997.83 1670.39,1002.18 1669.22,1005.27 1667.16,1007.10 1664.21,1007.68"/>
    </edge>
    <edge id=":19_5" function="internal">
        <lane id=":19_5_0" index="0" speed="14.00" length="5.06" shape="1664.29,1001.09 1665.68,1000.90 1666.65,1000.32 1667.21,999.34 1667.36,997.95"/>
    </edge>
    <edge id=":19_6" function="internal">
        <lane id=":19_6_0" index="0" speed="14.00" length="9.50" shape="1664.29,1001.09 1673.80,1001.21"/>
        <lane id=":19_6_1" index="1" speed="14.00" length="9.50" shape="1664.25,1004.39 1673.75,1004.51"/>
    </edge>
    <edge id=":21_0" function="internal">
        <lane id=":21_0_0" index="0" speed="14.00" length="9.84" shape="1752.28,1015.48 1742.66,1015.38"/>
        <lane id=":21_0_1" index="1" speed="14.00" length="9.84" shape="1752.30,1012.18 1742.71,1012.08"/>
        <lane id=":21_0_2" index="2" speed="14.00" length="9.84" shape="1752.30,1012.18 1749.38,1011.64 1747.53,1010.49 1745.67,1009.34 1742.75,1008.78"/>
    </edge>
    <edge id=":21_3" function="internal">
        <lane id=":21_3_0" index="0" speed="14.00" length="4.45" shape="1752.32,1008.88 1749.58,1008.25 1748.38,1007.14"/>
    </edge>
    <edge id=":21_10" function="internal">
        <lane id=":21_10_0" index="0" speed="14.00" length="8.65" shape="1748.38,1007.14 1747.60,1006.41 1746.39,1003.35 1745.95,999.08"/>
    </edge>
    <edge id=":21_4" function="internal">
        <lane id=":21_4_0" index="0" speed="14.00" length="5.10" shape="1749.25,999.04 1749.46,1000.45 1750.05,1001.46 1751.01,1002.07 1752.36,1002.28"/>
    </edge>
    <edge id=":21_5" function="internal">
        <lane id=":21_5_0" index="0" speed="14.00" length="14.75" shape="1749.25,999.04 1748.90,1004.78 1747.69,1008.87 1745.63,1011.30 1742.71,1012.08"/>
        <lane id=":21_5_1" index="1" speed="14.00" length="14.75" shape="1749.25,999.04 1748.89,1003.34 1747.69,1006.39 1745.64,1008.21 1742.75,1008.78"/>
    </edge>
    <edge id=":21_7" function="internal">
        <lane id=":21_7_0" index="0" speed="14.00" length="5.03" shape="1742.85,1002.18 1744.22,1002.00 1745.19,1001.43 1745.77,1000.46 1745.95,999.08"/>
    </edge>
    <edge id=":21_8" function="internal">
        <lane id=":21_8_0" index="0" speed="14.00" length="9.53" shape="1742.85,1002.18 1752.36,1002.28"/>
        <lane id=":21_8_1" index="1" speed="14.00" length="9.53" shape="1742.80,1005.48 1752.34,1005.58"/>
    </edge>
    <edge id=":23_0" function="internal">
        <lane id=":23_0_0" index="0" speed="14.00" length="3.97" shape="1928.07,1013.26 1925.05,1016.54"/>
        <lane id=":23_0_1" index="1" speed="14.00" length="3.97" shape="1928.09,1009.96 1925.07,1013.24"/>
        <lane id=":23_0_2" index="2" speed="14.00" length="3.97" shape="1928.09,1009.96 1925.09,1009.94"/>
    </edge>
    <edge id=":23_3" function="internal">
        <lane id=":23_3_0" index="0" speed="14.00" length="3.00" shape="1925.13,1003.34 1928.13,1003.36"/>
        <lane id=":23_3_1" index="1" speed="14.00" length="3.00" shape="1925.11,1006.64 1928.11,1006.66"/>
    </edge>
    <edge id=":24_0" function="internal">
        <lane id=":24_0_0" index="0" speed="14.00" length="0.10" shape="2129.50,1014.35 2129.47,1014.35"/>
        <lane id=":24_0_1" index="1" speed="14.00" length="0.10" shape="2129.50,1011.05 2129.49,1011.05"/>
    </edge>
    <edge id=":24_2" function="internal">
        <lane id=":24_2_0" index="0" speed="14.00" length="0.10" shape="2129.53,1004.45 2129.50,1004.45"/>
        <lane id=":24_2_1" index="1" speed="14.00" length="0.10" shape="2129.51,1007.75 2129.50,1007.75"/>
    </edge>
    <edge id=":25_0" function="internal">
        <lane id=":25_0_0" index="0" speed="14.00" length="3.04" shape="2221.38,1013.80 2217.88,1014.35"/>
        <lane id=":25_0_1" index="1" speed="14.00" length="3.04" shape="2220.38,1010.66 2217.88,1011.05"/>
    </edge>
    <edge id=":25_2" function="internal">
        <lane id=":25_2_0" index="0" speed="14.00" length="1.00" shape="2217.88,1004.45 2218.37,1004.37"/>
        <lane id=":25_2_1" index="1" speed="14.00" length="1.00" shape="2217.88,1007.75 2219.37,1007.52"/>
    </edge>
    <edge id=":26_0" function="internal">
        <lane id=":26_0_0" index="0" speed="14.00" length="2.99" shape="2295.47,989.57 2292.35,991.12"/>
        <lane id=":26_0_1" index="1" speed="14.00" length="2.99" shape="2293.57,986.87 2291.35,987.98"/>
    </edge>
    <edge id=":26_2" function="internal">
        <lane id=":26_2_0" index="0" speed="14.00" length="0.99" shape="2289.34,981.69 2289.77,981.47"/>
        <lane id=":26_2_1" index="1" speed="14.00" length="0.99" shape="2290.34,984.83 2291.67,984.17"/>
    </edge>
    <edge id=":27_0" function="internal">
        <lane id=":27_0_0" index="0" speed="14.00" length="2.28" shape="2349.51,951.11 2347.53,952.89"/>
        <lane id=":27_0_1" index="1" speed="14.00" length="2.28" shape="2347.04,948.92 2345.63,950.19"/>
    </edge>
    <edge id=":27_2" function="internal">
        <lane id=":27_2_0" index="0" speed="14.00" length="0.75" shape="2341.82,944.79 2342.10,944.55"/>
        <lane id=":27_2_1" index="1" speed="14.00" length="0.75" shape="2343.73,947.49 2344.57,946.73"/>
    </edge>
    <edge id=":28_0" function="internal">
        <lane id=":28_0_0" index="0" speed="14.00" length="2.29" shape="2379.52,916.77 2378.00,918.96"/>
        <lane id=":28_0_1" index="1" speed="14.00" length="2.29" shape="2376.62,915.21 2375.53,916.77"/>
    </edge>
    <edge id=":28_2" function="internal">
        <lane id=":28_2_0" index="0" speed="14.00" length="0.75" shape="2370.59,912.39 2370.80,912.09"/>
        <lane id=":28_2_1" index="1" speed="14.00" length="0.75" shape="2373.06,914.58 2373.71,913.65"/>
    </edge>
    <edge id=":29_0" function="internal">
        <lane id=":29_0_0" index="0" speed="14.00" length="0.13" shape="2474.10,751.26 2474.01,751.40"/>
        <lane id=":29_0_1" index="1" speed="14.00" length="0.13" shape="2471.21,749.66 2471.23,749.63"/>
    </edge>
    <edge id=":29_2" function="internal">
        <lane id=":29_2_0" index="0" speed="14.00" length="0.11" shape="2462.68,744.63 2462.74,744.53"/>
        <lane id=":29_2_1" index="1" speed="14.00" length="0.11" shape="2465.56,746.25 2465.56,746.25"/>
        <lane id=":29_2_2" index="2" speed="14.00" length="0.11" shape="2468.38,747.97 2468.38,747.97"/>
    </edge>
    <edge id=":30_0" function="internal">
        <lane id=":30_0_0" index="0" speed="14.00" length="16.56" shape="2507.89,719.00 2501.31,719.66 2496.43,720.41 2493.27,721.26 2491.81,722.20"/>
    </edge>
    <edge id=":30_1" function="internal">
        <lane id=":30_1_0" index="0" speed="14.00" length="26.26" shape="2507.62,715.71 2499.24,715.42 2494.52,712.86 2493.44,708.02 2496.01,700.92"/>
    </edge>
    <edge id=":30_2" function="internal">
        <lane id=":30_2_0" index="0" speed="14.00" length="8.01" shape="2504.74,705.59 2504.11,707.28 2504.28,708.43 2505.27,709.05 2507.07,709.13"/>
        <lane id=":30_2_1" index="1" speed="14.00" length="8.01" shape="2504.74,705.59 2503.43,708.78 2503.43,710.98 2504.73,712.20 2507.35,712.42"/>
    </edge>
    <edge id=":30_4" function="internal">
        <lane id=":30_4_0" index="0" speed="14.00" length="20.66" shape="2501.83,704.03 2498.94,709.53 2496.94,713.35 2494.89,717.05 2491.81,722.20"/>
        <lane id=":30_4_1" index="1" speed="14.00" length="20.66" shape="2498.92,702.48 2496.06,707.92 2494.09,711.68 2492.06,715.34 2488.99,720.48"/>
    </edge>
    <edge id=":30_6" function="internal">
        <lane id=":30_6_0" index="0" speed="14.00" length="20.48" shape="2480.54,715.33 2484.07,710.42 2487.04,707.41 2489.89,704.37 2493.10,699.37"/>
        <lane id=":30_6_1" index="1" speed="14.00" length="20.48" shape="2483.36,717.05 2486.92,712.08 2489.92,709.01 2492.80,705.94 2496.01,700.92"/>
    </edge>
    <edge id=":30_8" function="internal">
        <lane id=":30_8_0" index="0" speed="14.00" length="5.64" shape="2486.18,718.77 2489.39,715.04 2490.94,714.07"/>
        <lane id=":30_8_1" index="1" speed="14.00" length="5.64" shape="2486.18,718.77 2488.61,716.55 2489.76,716.08"/>
    </edge>
    <edge id=":30_10" function="internal">
        <lane id=":30_10_0" index="0" speed="14.00" length="17.08" shape="2490.94,714.07 2493.94,712.19 2499.84,710.23 2507.07,709.13"/>
    </edge>
    <edge id=":30_11" function="internal">
        <lane id=":30_11_0" index="0" speed="14.00" length="18.05" shape="2489.76,716.08 2492.94,714.76 2499.19,713.38 2507.35,712.42"/>
    </edge>
    <edge id=":31_0" function="internal">
        <lane id=":31_0_0" index="0" speed="14.00" length="0.22" shape="2513.99,688.28 2513.82,688.59"/>
        <lane id=":31_0_1" index="1" speed="14.00" length="0.22" shape="2511.07,686.73 2510.97,686.92"/>
        <lane id=":31_0_2" index="2" speed="14.00" length="0.22" shape="2508.12,685.24 2508.16,685.18"/>
    </edge>
    <edge id=":31_3" function="internal">
        <lane id=":31_3_0" index="0" speed="14.00" length="0.14" shape="2502.34,682.06 2502.43,681.90"/>
        <lane id=":31_3_1" index="1" speed="14.00" length="0.14" shape="2505.27,683.57 2505.27,683.57"/>
    </edge>
    <edge id=":32_0" function="internal">
        <lane id=":32_0_0" index="0" speed="14.00" length="3.31" shape="2519.83,717.37 2516.10,718.32"/>
        <lane id=":32_0_1" index="1" speed="14.00" length="3.31" shape="2518.49,714.35 2515.82,715.04"/>
    </edge>
    <edge id=":32_2" function="internal">
        <lane id=":32_2_0" index="0" speed="14.00" length="1.09" shape="2515.28,708.46 2515.80,708.33"/>
        <lane id=":32_2_1" index="1" speed="14.00" length="1.09" shape="2515.55,711.75 2517.15,711.34"/>
    </edge>
    <edge id=":34_0" function="internal">
        <lane id=":34_0_0" index="0" speed="14.00" length="3.98" shape="2544.93,629.11 2546.25,633.37"/>
        <lane id=":34_0_1" index="1" speed="14.00" length="3.98" shape="2542.08,627.44 2543.41,631.70"/>
        <lane id=":34_0_2" index="2" speed="14.00" length="3.98" shape="2542.08,627.44 2540.56,630.03"/>
    </edge>
    <edge id=":34_3" function="internal">
        <lane id=":34_3_0" index="0" speed="14.00" length="3.00" shape="2534.87,626.69 2536.39,624.10"/>
        <lane id=":34_3_1" index="1" speed="14.00" length="3.00" shape="2537.72,628.36 2539.23,625.77"/>
    </edge>
    <edge id=":35_0" function="internal">
        <lane id=":35_0_0" index="0" speed="14.00" length="0.12" shape="2764.58,254.29 2764.51,254.41"/>
        <lane id=":35_0_1" index="1" speed="14.00" length="0.12" shape="2761.70,252.67 2761.72,252.63"/>
    </edge>
    <edge id=":35_2" function="internal">
        <lane id=":35_2_0" index="0" speed="14.00" length="0.10" shape="2756.08,249.21 2756.08,249.21"/>
        <lane id=":35_2_1" index="1" speed="14.00" length="0.10" shape="2758.89,250.94 2758.89,250.94"/>
    </edge>
    <edge id=":36_0" function="internal">
        <lane id=":36_0_0" index="0" speed="14.00" length="0.32" shape="2801.34,194.64 2801.25,194.77"/>
        <lane id=":36_0_1" index="1" speed="14.00" length="0.32" shape="2798.71,192.64 2798.44,193.04"/>
    </edge>
    <edge id=":36_2" function="internal">
        <lane id=":36_2_0" index="0" speed="14.00" length="0.96" shape="2792.82,189.57 2793.45,188.65"/>
        <lane id=":36_2_1" index="1" speed="14.00" length="0.96" shape="2795.63,191.31 2796.08,190.65"/>
    </edge>
    <edge id=":37_0" function="internal">
        <lane id=":37_0_0" index="0" speed="14.00" length="0.89" shape="2839.61,144.31 2839.29,144.62"/>
        <lane id=":37_0_1" index="1" speed="14.00" length="0.89" shape="2837.62,141.67 2836.66,142.62"/>
    </edge>
    <edge id=":37_2" function="internal">
        <lane id=":37_2_0" index="0" speed="14.00" length="2.71" shape="2831.41,138.63 2833.65,136.40"/>
        <lane id=":37_2_1" index="1" speed="14.00" length="2.71" shape="2834.04,140.63 2835.63,139.03"/>
    </edge>
    <edge id=":38_0" function="internal">
        <lane id=":38_0_0" index="0" speed="14.00" length="4.09" shape="2879.58,114.96 2876.45,116.55"/>
        <lane id=":38_0_1" index="1" speed="14.00" length="4.09" shape="2878.62,111.80 2874.47,113.92"/>
    </edge>
    <edge id=":38_2" function="internal">
        <lane id=":38_2_0" index="0" speed="14.00" length="7.06" shape="2870.50,108.65 2875.74,102.33"/>
        <lane id=":38_2_1" index="1" speed="14.00" length="7.06" shape="2872.48,111.28 2876.70,105.49"/>
        <lane id=":38_2_2" index="2" speed="14.00" length="7.06" shape="2872.48,111.28 2877.66,108.65"/>
    </edge>
    <edge id=":39_0" function="internal">
        <lane id=":39_0_0" index="0" speed="14.00" length="2.81" shape="2398.22,882.01 2396.88,884.41"/>
        <lane id=":39_0_1" index="1" speed="14.00" length="2.81" shape="2395.37,880.35 2393.97,882.85"/>
    </edge>
    <edge id=":39_2" function="internal">
        <lane id=":39_2_0" index="0" speed="14.00" length="4.00" shape="2388.16,879.73 2386.80,875.39"/>
        <lane id=":39_2_1" index="1" speed="14.00" length="4.00" shape="2391.06,881.29 2389.66,877.04"/>
        <lane id=":39_2_2" index="2" speed="14.00" length="4.00" shape="2391.06,881.29 2392.51,878.70"/>
    </edge>
    <edge id=":4_0" function="internal">
        <lane id=":4_0_0" index="0" speed="14.00" length="9.71" shape="97.68,1104.17 98.01,1105.45 99.03,1107.04 100.75,1108.94 103.17,1111.14"/>
        <lane id=":4_0_1" index="1" speed="14.00" length="9.71" shape="97.68,1104.17 97.85,1107.22 98.47,1109.81 99.53,1111.96 101.03,1113.65"/>
    </edge>
    <edge id=":4_2" function="internal">
        <lane id=":4_2_0" index="0" speed="14.00" length="11.03" shape="97.68,1104.17 97.60,1107.48 97.50,1109.75 97.36,1112.01 97.17,1115.31"/>
        <lane id=":4_2_1" index="1" speed="14.00" length="11.03" shape="94.38,1104.12 94.30,1107.40 94.20,1109.63 94.07,1111.87 93.88,1115.14"/>
        <lane id=":4_2_2" index="2" speed="14.00" length="11.03" shape="91.08,1104.07 91.01,1107.31 90.91,1109.52 90.77,1111.74 90.58,1114.97"/>
    </edge>
    <edge id=":4_5" function="internal">
        <lane id=":4_5_0" index="0" speed="14.00" length="10.67" shape="80.70,1114.46 80.88,1111.33 81.01,1109.19 81.11,1107.05 81.18,1103.92"/>
        <lane id=":4_5_1" index="1" speed="14.00" length="10.67" shape="83.99,1114.63 84.17,1111.47 84.31,1109.30 84.41,1107.14 84.48,1103.97"/>
        <lane id=":4_5_2" index="2" speed="14.00" length="10.67" shape="87.29,1114.80 87.47,1111.60 87.61,1109.41 87.71,1107.22 87.78,1104.02"/>
    </edge>
    <edge id=":40_0" function="internal">
        <lane id=":40_0_0" index="0" speed="14.00" length="12.16" shape="2952.48,93.65 2949.05,93.81 2946.74,94.30 2944.47,95.11 2941.18,96.22"/>
        <lane id=":40_0_1" index="1" speed="14.00" length="12.16" shape="2952.48,90.35 2948.76,90.52 2946.25,91.02 2943.79,91.87 2940.22,93.07"/>
    </edge>
    <edge id=":40_2" function="internal">
        <lane id=":40_2_0" index="0" speed="14.00" length="18.26" shape="2952.48,90.35 2947.45,89.09 2944.76,86.10 2942.15,82.55 2937.40,79.63"/>
        <lane id=":40_2_1" index="1" speed="14.00" length="18.26" shape="2952.48,87.05 2947.75,85.80 2945.29,82.83 2942.92,79.33 2938.45,76.50"/>
        <lane id=":40_2_2" index="2" speed="14.00" length="18.26" shape="2952.48,83.75 2948.05,82.50 2945.83,79.56 2943.68,76.12 2939.50,73.38"/>
    </edge>
    <edge id=":40_5" function="internal">
        <lane id=":40_5_0" index="0" speed="14.00" length="13.57" shape="2937.34,83.59 2939.67,82.64 2940.46,81.66 2939.70,80.66 2937.40,79.63"/>
        <lane id=":40_5_1" index="1" speed="14.00" length="13.57" shape="2937.34,83.59 2941.78,81.82 2943.44,80.05 2942.33,78.28 2938.45,76.50"/>
        <lane id=":40_5_2" index="2" speed="14.00" length="13.57" shape="2937.34,83.59 2943.88,81.01 2946.42,78.44 2944.96,75.90 2939.50,73.38"/>
    </edge>
    <edge id=":40_8" function="internal">
        <lane id=":40_8_0" index="0" speed="14.00" length="17.30" shape="2938.30,86.75 2942.77,84.20 2945.25,81.02 2947.80,78.30 2952.48,77.15"/>
        <lane id=":40_8_1" index="1" speed="14.00" length="17.30" shape="2939.26,89.91 2943.46,87.43 2945.74,84.29 2948.08,81.60 2952.48,80.45"/>
    </edge>
    <edge id=":42_0" function="internal">
        <lane id=":42_0_0" index="0" speed="14.00" length="3.90" shape="3069.43,90.41 3066.86,93.65"/>
        <lane id=":42_0_1" index="1" speed="14.00" length="3.90" shape="3069.58,87.12 3066.86,90.35"/>
        <lane id=":42_0_2" index="2" speed="14.00" length="3.90" shape="3069.74,83.82 3066.86,87.05"/>
        <lane id=":42_0_3" index="3" speed="14.00" length="3.90" shape="3069.74,83.82 3066.86,83.75"/>
    </edge>
    <edge id=":42_4" function="internal">
        <lane id=":42_4_0" index="0" speed="14.00" length="4.08" shape="3066.86,77.15 3070.21,73.93"/>
        <lane id=":42_4_1" index="1" speed="14.00" length="4.08" shape="3066.86,80.45 3070.06,77.23"/>
        <lane id=":42_4_2" index="2" speed="14.00" length="4.08" shape="3066.86,80.45 3069.90,80.52"/>
    </edge>
    <edge id=":43_0" function="internal">
        <lane id=":43_0_0" index="0" speed="14.00" length="17.69" shape="3095.26,97.65 3092.79,94.90 3089.62,92.88 3085.74,91.57 3081.16,90.97"/>
        <lane id=":43_0_1" index="1" speed="14.00" length="17.69" shape="3097.98,95.79 3095.01,92.44 3091.24,89.98 3086.68,88.39 3081.32,87.68"/>
    </edge>
    <edge id=":43_2" function="internal">
        <lane id=":43_2_0" index="0" speed="14.00" length="8.42" shape="3108.65,88.40 3105.40,88.59 3103.45,89.26 3102.80,90.42 3103.44,92.07"/>
    </edge>
    <edge id=":43_3" function="internal">
        <lane id=":43_3_0" index="0" speed="14.00" length="27.29" shape="3108.65,88.40 3102.08,88.32 3096.36,88.23 3089.94,88.04 3081.32,87.68"/>