<?xml version="1.0" encoding="UTF-8"?>
<types>
   <type id="aaa" priority="3" numLanes="4" speed="20.000"/>
   <type id="aa"  priority="3" numLanes="3" speed="20.000"/>
   <type id="a"   priority="3" numLanes="2" speed="20.000"/>
   <type id="b"   priority="2" numLanes="2" speed="20.000"/>
   <type id="c"   priority="1" numLanes="1" speed="20.000"/>
</types>
