<?xml version="1.0" encoding="UTF-8"?>

<!-- generated on 01/10/16 16:17:13 by SUMO netconvert Version 0.24.0
<?xml version="1.0" encoding="UTF-8"?>

<configuration xmlns:xsi="http://www.w3.org/2001/XMLSchema-instance" xsi:noNamespaceSchemaLocation="http://sumo.dlr.de/xsd/netconvertConfiguration.xsd">

    <input>
        <node-files value="huntingtonColorado2.nod.xml"/>
        <edge-files value="huntingtonColorado2.edg.xml"/>
    </input>

    <output>
        <output-file value="huntingtonColorado2.net.xml"/>
    </output>

</configuration>
-->

<net version="0.13" xmlns:xsi="http://www.w3.org/2001/XMLSchema-instance" xsi:noNamespaceSchemaLocation="http://sumo.dlr.de/xsd/net_file.xsd">

    <location netOffset="283.10,126.50" convBoundary="0.00,0.00,283.10,345.00" origBoundary="-283.10,-126.50,0.00,218.50" projParameter="!"/>

    <edge id=":10_0" function="internal">
        <lane id=":10_0_0" index="0" speed="13.90" length="1.36" shape="159.65,228.43 159.90,228.67 160.08,228.95 160.20,229.26 160.25,229.61"/>
    </edge>
    <edge id=":11_0" function="internal">
        <lane id=":11_0_0" index="0" speed="13.90" length="1.45" shape="161.15,250.65 161.13,251.02 161.03,251.36 160.85,251.66 160.59,251.93"/>
    </edge>
    <edge id=":12_0" function="internal">
        <lane id=":12_0_0" index="0" speed="13.90" length="1.46" shape="141.16,268.67 140.85,268.88 140.52,269.01 140.17,269.06 139.79,269.02"/>
    </edge>
    <edge id=":13_0" function="internal">
        <lane id=":13_0_0" index="0" speed="13.90" length="0.80" shape="117.66,264.51 116.94,264.16"/>
    </edge>
    <edge id=":14_0" function="internal">
        <lane id=":14_0_0" index="0" speed="13.90" length="0.32" shape="79.94,91.65 80.23,91.80"/>
    </edge>
    <edge id=":15_0" function="internal">
        <lane id=":15_0_0" index="0" speed="13.90" length="0.27" shape="100.11,103.70 99.85,103.62"/>
    </edge>
    <edge id=":16_0" function="internal">
        <lane id=":16_0_0" index="0" speed="13.90" length="0.10" shape="88.65,109.89 88.65,109.90"/>
    </edge>
    <edge id=":17_0" function="internal">
        <lane id=":17_0_0" index="0" speed="13.90" length="0.10" shape="91.95,84.30 91.95,84.30"/>
    </edge>
    <edge id=":4_0" function="internal">
        <lane id=":4_0_0" index="0" speed="13.90" length="3.00" shape="91.32,242.31 89.76,240.83 89.23,240.16"/>
    </edge>
    <edge id=":4_2" function="internal">
        <lane id=":4_2_0" index="0" speed="13.90" length="3.63" shape="89.23,240.16 88.64,239.43 87.98,238.13 87.76,236.92"/>
    </edge>
    <edge id=":4_1" function="internal">
        <lane id=":4_1_0" index="0" speed="13.90" length="7.06" shape="87.47,243.97 87.76,236.92"/>
    </edge>
    <edge id=":9_0" function="internal">
        <lane id=":9_0_0" index="0" speed="13.90" length="0.82" shape="145.07,216.97 145.82,217.31"/>
    </edge>

    <edge id="10to11" from="10" to="11" priority="-1">
        <lane id="10to11_0" index="0" speed="13.90" length="21.07" shape="160.25,229.61 161.15,250.65"/>
    </edge>
    <edge id="11to12" from="11" to="12" priority="-1">
        <lane id="11to12_0" index="0" speed="13.90" length="25.65" shape="160.59,251.93 141.16,268.67"/>
    </edge>
    <edge id="12to13" from="12" to="13" priority="-1">
        <lane id="12to13_0" index="0" speed="13.90" length="22.59" shape="139.79,269.02 117.66,264.51"/>
    </edge>
    <edge id="13to4" from="13" to="4" priority="-1">
        <lane id="13to4_0" index="0" speed="13.90" length="33.68" shape="116.94,264.16 91.32,242.31"/>
    </edge>
    <edge id="14to1" from="14" to="1" priority="-1">
        <lane id="14to1_0" index="0" speed="13.90" length="6.52" shape="80.23,91.80 86.27,94.27"/>
    </edge>
    <edge id="15to1" from="15" to="1" priority="-1">
        <lane id="15to1_0" index="0" speed="13.90" length="6.05" shape="99.85,103.62 94.29,101.22"/>
    </edge>
    <edge id="16to1" from="16" to="1" priority="-1">
        <lane id="16to1_0" index="0" speed="13.90" length="7.18" shape="88.65,109.90 88.65,102.72"/>
    </edge>
    <edge id="17to1" from="17" to="1" priority="-1">
        <lane id="17to1_0" index="0" speed="13.90" length="8.41" shape="91.95,84.30 91.95,92.71"/>
    </edge>
    <edge id="2to14" from="2" to="14" priority="-1">
        <lane id="2to14_0" index="0" speed="13.90" length="95.16" shape="0.92,38.63 79.94,91.65"/>
    </edge>
    <edge id="3to17" from="3" to="17" priority="-1">
        <lane id="3to17_0" index="0" speed="13.90" length="84.30" shape="91.95,0.00 91.95,84.30"/>
    </edge>
    <edge id="4to16" from="4" to="16" priority="-1">
        <lane id="4to16_0" index="0" speed="13.90" length="127.03" shape="87.76,236.92 88.65,109.89"/>
    </edge>
    <edge id="5to4" from="5" to="4" priority="-1">
        <lane id="5to4_0" index="0" speed="13.90" length="101.08" shape="82.25,344.91 87.47,243.97"/>
    </edge>
    <edge id="6to15" from="6" to="15" priority="-1">
        <lane id="6to15_0" index="0" speed="13.90" length="71.48" shape="169.56,120.60 100.11,103.70"/>
    </edge>
    <edge id="6to7" from="6" to="7" priority="-1">
        <lane id="6to7_0" index="0" speed="13.90" length="110.39" shape="172.84,121.05 283.16,124.85"/>
    </edge>
    <edge id="8to9" from="8" to="9" priority="-1">
        <lane id="8to9_0" index="0" speed="13.90" length="21.58" shape="123.76,213.57 145.07,216.97"/>
    </edge>
    <edge id="9to10" from="9" to="10" priority="-1">
        <lane id="9to10_0" index="0" speed="13.90" length="17.75" shape="145.82,217.31 159.65,228.43"/>
    </edge>

    <junction id="1" type="unregulated" x="90.30" y="97.70" incLanes="16to1_0 15to1_0 17to1_0 14to1_0" intLanes="" shape="87.05,102.72 90.25,102.72 93.66,102.69 94.93,99.75 93.55,92.71 90.35,92.71 86.87,92.79 85.66,95.75"/>
    <junction id="10" type="priority" x="158.60" y="229.70" incLanes="9to10_0" intLanes=":10_0_0" shape="158.65,229.68 161.85,229.54 160.65,227.18 158.65,229.68">
        <request index="0" response="0" foes="0" cont="0"/>
    </junction>
    <junction id="11" type="priority" x="159.50" y="250.70" incLanes="10to11_0" intLanes=":11_0_0" shape="162.75,250.59 159.55,250.72 161.64,253.15">
        <request index="0" response="0" foes="0" cont="0"/>
    </junction>
    <junction id="12" type="priority" x="140.10" y="267.40" incLanes="11to12_0" intLanes=":12_0_0" shape="142.20,269.88 140.11,267.45 139.48,270.59">
        <request index="0" response="0" foes="0" cont="0"/>
    </junction>
    <junction id="13" type="priority" x="118.00" y="262.90" incLanes="12to13_0" intLanes=":13_0_0" shape="117.34,266.08 117.98,262.95 115.90,265.38">
        <request index="0" response="0" foes="0" cont="0"/>
    </junction>
    <junction id="14" type="priority" x="79.30" y="93.20" incLanes="2to14_0" intLanes=":14_0_0" shape="79.62,93.28 80.84,90.32 79.05,92.97">
        <request index="0" response="0" foes="0" cont="0"/>
    </junction>
    <junction id="15" type="priority" x="100.50" y="102.10" incLanes="6to15_0" intLanes=":15_0_0" shape="99.73,105.26 100.48,102.15 99.22,105.09">
        <request index="0" response="0" foes="0" cont="0"/>
    </junction>
    <junction id="16" type="priority" x="90.30" y="109.90" incLanes="4to16_0" intLanes=":16_0_0" shape="90.25,109.90 87.05,109.90 90.25,109.90">
        <request index="0" response="0" foes="0" cont="0"/>
    </junction>
    <junction id="17" type="priority" x="90.30" y="84.30" incLanes="3to17_0" intLanes=":17_0_0" shape="90.35,84.30 93.55,84.30 90.35,84.30">
        <request index="0" response="0" foes="0" cont="0"/>
    </junction>
    <junction id="2" type="unregulated" x="0.00" y="40.00" incLanes="" intLanes="" shape="0.03,39.96 1.81,37.30"/>
    <junction id="3" type="unregulated" x="90.30" y="0.00" incLanes="" intLanes="" shape="90.35,-0.00 93.55,-0.00"/>
    <junction id="4" type="priority" x="89.40" y="238.50" incLanes="13to4_0 5to4_0" intLanes=":4_2_0 :4_1_0" shape="90.28,243.52 92.36,241.09 89.36,236.93 86.16,236.90 85.87,243.88 89.06,244.05">
        <request index="0" response="10" foes="10" cont="1"/>
        <request index="1" response="00" foes="01" cont="0"/>
    </junction>
    <junction id="5" type="unregulated" x="83.90" y="345.00" incLanes="" intLanes="" shape="83.85,345.00 80.65,344.83"/>
    <junction id="6" type="unregulated" x="187.20" y="123.20" incLanes="" intLanes="" shape="172.78,122.65 172.89,119.46 169.93,119.05 169.18,122.16"/>
    <junction id="7" type="unregulated" x="283.10" y="126.50" incLanes="6to7_0" intLanes="" shape="283.21,123.25 283.10,126.45"/>
    <junction id="8" type="unregulated" x="123.50" y="215.20" incLanes="" intLanes="" shape="123.51,215.15 124.01,211.99"/>
    <junction id="9" type="priority" x="144.80" y="218.60" incLanes="8to9_0" intLanes=":9_0_0" shape="144.82,218.55 146.83,216.06 145.33,215.39 144.82,218.55">
        <request index="0" response="0" foes="0" cont="0"/>
    </junction>

    <junction id=":4_2_0" type="internal" x="89.23" y="240.16" incLanes=":4_0_0 5to4_0" intLanes=":4_1_0"/>

    <connection from="10to11" to="11to12" fromLane="0" toLane="0" via=":11_0_0" dir="l" state="M"/>
    <connection from="11to12" to="12to13" fromLane="0" toLane="0" via=":12_0_0" dir="l" state="M"/>
    <connection from="12to13" to="13to4" fromLane="0" toLane="0" via=":13_0_0" dir="s" state="M"/>
    <connection from="13to4" to="4to16" fromLane="0" toLane="0" via=":4_0_0" dir="l" state="m"/>
    <connection from="2to14" to="14to1" fromLane="0" toLane="0" via=":14_0_0" dir="s" state="M"/>
    <connection from="3to17" to="17to1" fromLane="0" toLane="0" via=":17_0_0" dir="s" state="M"/>
    <connection from="4to16" to="16to1" fromLane="0" toLane="0" via=":16_0_0" dir="s" state="M"/>
    <connection from="5to4" to="4to16" fromLane="0" toLane="0" via=":4_1_0" dir="s" state="M"/>
    <connection from="6to15" to="15to1" fromLane="0" toLane="0" via=":15_0_0" dir="s" state="M"/>
    <connection from="8to9" to="9to10" fromLane="0" toLane="0" via=":9_0_0" dir="s" state="M"/>
    <connection from="9to10" to="10to11" fromLane="0" toLane="0" via=":10_0_0" dir="l" state="M"/>

    <connection from=":10_0" to="10to11" fromLane="0" toLane="0" dir="s" state="M"/>
    <connection from=":11_0" to="11to12" fromLane="0" toLane="0" dir="s" state="M"/>
    <connection from=":12_0" to="12to13" fromLane="0" toLane="0" dir="s" state="M"/>
    <connection from=":13_0" to="13to4" fromLane="0" toLane="0" dir="s" state="M"/>
    <connection from=":14_0" to="14to1" fromLane="0" toLane="0" dir="s" state="M"/>
    <connection from=":15_0" to="15to1" fromLane="0" toLane="0" dir="s" state="M"/>
    <connection from=":16_0" to="16to1" fromLane="0" toLane="0" dir="s" state="M"/>
    <connection from=":17_0" to="17to1" fromLane="0" toLane="0" dir="s" state="M"/>
    <connection from=":4_0" to="4to16" fromLane="0" toLane="0" via=":4_2_0" dir="s" state="m"/>
    <connection from=":4_2" to="4to16" fromLane="0" toLane="0" dir="s" state="M"/>
    <connection from=":4_1" to="4to16" fromLane="0" toLane="0" dir="s" state="M"/>
    <connection from=":9_0" to="9to10" fromLane="0" toLane="0" dir="s" state="M"/>

</net>
