<nodes>
    <node id="1" x="-192.8" y="-28.8" />
    <node id="2" x="-283.1" y="-86.5" />
	<node id="3" x="-192.8" y="-126.5" />
    <node id="4" x="-193.7" y="112" />
	<node id="5" x="-199.2" y="218.5" />
	<node id="6" x="-95.9" y="-3.3" />
    <node id="7" x="0.0" y="0.0" />
    <node id="8" x="-159.6" y="88.7" />
    <node id="9" x="-138.3" y="92.1" />
	<node id="10" x="-124.5" y="103.2" />
    <node id="11" x="-123.6" y="124.2" />
	<node id="12" x="-143" y="140.9" />
	<node id="13" x="-165.1" y="136.4" />
	
	<node id="14" x="-203.8" y="-33.3" />
    <node id="15" x="-182.6" y="-24.4" />
	<node id="16" x="-192.8" y="-16.6" />
	<node id="17" x="-192.8" y="-42.2" />
</nodes>