

<additional>


	<e1Detector id="sensor" lane="G3b_0" pos="1400" freq="1" file="data.out"/>


</additional> 
