<connections>
	<connection from="N4f" to="L6" fromLane="0" toLane="0"/>
	<connection from="N4f" to="L6" fromLane="0" toLane="1"/>
	<connection from="N4f" to="L8" fromLane="1" toLane="0"/>
	<connection from="N4f" to="L8" fromLane="1" toLane="1"/>
	<connection from="L5" to="L8" fromLane="0" toLane="0"/>
	<connection from="L5" to="L8" fromLane="0" toLane="1"/>
	<connection from="L5" to="L4" fromLane="1" toLane="0"/>
	<connection from="L5" to="L4" fromLane="1" toLane="1"/>
	<connection from="L7" to="L4" fromLane="0" toLane="0"/>
	<connection from="L7" to="L4" fromLane="0" toLane="1"/>
	<connection from="L7" to="N4b" fromLane="1" toLane="0"/>
	<connection from="L7" to="N4b" fromLane="1" toLane="1"/>
	<connection from="L3" to="N4b" fromLane="0" toLane="0"/>
	<connection from="L3" to="N4b" fromLane="0" toLane="1"/>
	<connection from="L3" to="L6" fromLane="1" toLane="0"/>
	<connection from="L3" to="L6" fromLane="1" toLane="1"/>
</connections>