<?xml version="1.0" encoding="iso-8859-1"?>
<configuration>
    <input>
        <net-file value="intersection2Test.net.xml"/>
        <route-files value="intersection2Test2.rou.xml"/>
    </input>
    <time>
        <begin value="0"/>
    </time>
    <time-to-teleport value="-1"/>
</configuration>