<nodes>
	<node id="1" x="-500.0" y="0.0" />
	<node id="2" x="0.0" y="500.0" />
	<node id="3" x="500.0" y="0.0" />
	<node id="4" x="0.0" y="-500.0" />
	<node id="5" x="-400.0" y="0.0"/>
	<node id="10" x="-390.0" y="0.0" />
	<node id="11" x="-380.0" y="0.0" />
	<node id="12" x="-370.0" y="0.0" />
	<node id="6" x="0.0" y="400.0" />
	<node id="7" x="400.0" y="0.0" />
	<node id="8" x="0.0" y="-400.0" />
	<node id="9" x="0.0" y="0.0" type="traffic_light"/><!--#type="traffic_light"-->
</nodes>