<?xml version="1.0" encoding="UTF-8"?>

<!-- generated on 12/13/15 15:02:52 by SUMO netconvert Version 0.24.0
<?xml version="1.0" encoding="UTF-8"?>

<configuration xmlns:xsi="http://www.w3.org/2001/XMLSchema-instance" xsi:noNamespaceSchemaLocation="http://sumo.dlr.de/xsd/netconvertConfiguration.xsd">

    <input>
        <node-files value="intersectionTest.nod.xml"/>
        <edge-files value="intersectionTest.edg.xml"/>
        <type-files value="intersectionTest.typ.xml"/>
    </input>

    <output>
        <output-file value="intersectionTest.net.xml"/>
    </output>

</configuration>
-->

<net version="0.13" xmlns:xsi="http://www.w3.org/2001/XMLSchema-instance" xsi:noNamespaceSchemaLocation="http://sumo.dlr.de/xsd/net_file.xsd">

    <location netOffset="500.00,500.00" convBoundary="0.00,0.00,1000.00,1000.00" origBoundary="-500.00,-500.00,500.00,500.00" projParameter="!"/>

    <type id="a" priority="1" numLanes="1" speed="14.00"/>

    <edge id=":1_0" function="internal">
        <lane id=":1_0_0" index="0" speed="14.00" length="4.82" shape="0.00,501.65 -1.24,500.82 -1.65,500.00 -1.24,499.18 0.00,498.35"/>
    </edge>
    <edge id=":2_0" function="internal">
        <lane id=":2_0_0" index="0" speed="14.00" length="4.82" shape="501.65,1000.00 500.82,1001.24 500.00,1001.65 499.18,1001.24 498.35,1000.00"/>
    </edge>
    <edge id=":3_0" function="internal">
        <lane id=":3_0_0" index="0" speed="14.00" length="4.82" shape="1000.00,498.35 1001.24,499.18 1001.65,500.00 1001.24,500.82 1000.00,501.65"/>
    </edge>
    <edge id=":4_0" function="internal">
        <lane id=":4_0_0" index="0" speed="14.00" length="4.82" shape="498.35,0.00 499.18,-1.24 500.00,-1.65 500.82,-1.24 501.65,0.00"/>
    </edge>
    <edge id=":5_0" function="internal">
        <lane id=":5_0_0" index="0" speed="14.00" length="0.10" shape="100.00,501.65 100.00,501.65"/>
    </edge>
    <edge id=":5_1" function="internal">
        <lane id=":5_1_0" index="0" speed="14.00" length="2.41" shape="100.00,501.65 98.76,500.82 98.35,500.00"/>
    </edge>
    <edge id=":5_4" function="internal">
        <lane id=":5_4_0" index="0" speed="14.00" length="2.41" shape="98.35,500.00 98.76,499.18 100.00,498.35"/>
    </edge>
    <edge id=":5_2" function="internal">
        <lane id=":5_2_0" index="0" speed="14.00" length="0.10" shape="100.00,498.35 100.00,498.35"/>
    </edge>
    <edge id=":5_3" function="internal">
        <lane id=":5_3_0" index="0" speed="14.00" length="2.41" shape="100.00,498.35 101.24,499.18 101.65,500.00"/>
    </edge>
    <edge id=":5_5" function="internal">
        <lane id=":5_5_0" index="0" speed="14.00" length="2.41" shape="101.65,500.00 101.24,500.82 100.00,501.65"/>
    </edge>
    <edge id=":6_0" function="internal">
        <lane id=":6_0_0" index="0" speed="14.00" length="0.10" shape="498.35,900.00 498.35,900.00"/>
    </edge>
    <edge id=":6_1" function="internal">
        <lane id=":6_1_0" index="0" speed="14.00" length="2.41" shape="498.35,900.00 499.18,898.76 500.00,898.35"/>
    </edge>
    <edge id=":6_4" function="internal">
        <lane id=":6_4_0" index="0" speed="14.00" length="2.41" shape="500.00,898.35 500.82,898.76 501.65,900.00"/>
    </edge>
    <edge id=":6_2" function="internal">
        <lane id=":6_2_0" index="0" speed="14.00" length="0.10" shape="501.65,900.00 501.65,900.00"/>
    </edge>
    <edge id=":6_3" function="internal">
        <lane id=":6_3_0" index="0" speed="14.00" length="2.41" shape="501.65,900.00 500.82,901.24 500.00,901.65"/>
    </edge>
    <edge id=":6_5" function="internal">
        <lane id=":6_5_0" index="0" speed="14.00" length="2.41" shape="500.00,901.65 499.18,901.24 498.35,900.00"/>
    </edge>
    <edge id=":7_0" function="internal">
        <lane id=":7_0_0" index="0" speed="14.00" length="0.10" shape="900.00,501.65 900.00,501.65"/>
    </edge>
    <edge id=":7_1" function="internal">
        <lane id=":7_1_0" index="0" speed="14.00" length="2.41" shape="900.00,501.65 898.76,500.82 898.35,500.00"/>
    </edge>
    <edge id=":7_4" function="internal">
        <lane id=":7_4_0" index="0" speed="14.00" length="2.41" shape="898.35,500.00 898.76,499.18 900.00,498.35"/>
    </edge>
    <edge id=":7_2" function="internal">
        <lane id=":7_2_0" index="0" speed="14.00" length="0.10" shape="900.00,498.35 900.00,498.35"/>
    </edge>
    <edge id=":7_3" function="internal">
        <lane id=":7_3_0" index="0" speed="14.00" length="2.41" shape="900.00,498.35 901.24,499.18 901.65,500.00"/>
    </edge>
    <edge id=":7_5" function="internal">
        <lane id=":7_5_0" index="0" speed="14.00" length="2.41" shape="901.65,500.00 901.24,500.82 900.00,501.65"/>
    </edge>
    <edge id=":8_0" function="internal">
        <lane id=":8_0_0" index="0" speed="14.00" length="0.10" shape="498.35,100.00 498.35,100.00"/>
    </edge>
    <edge id=":8_1" function="internal">
        <lane id=":8_1_0" index="0" speed="14.00" length="2.41" shape="498.35,100.00 499.18,98.76 500.00,98.35"/>
    </edge>
    <edge id=":8_4" function="internal">
        <lane id=":8_4_0" index="0" speed="14.00" length="2.41" shape="500.00,98.35 500.82,98.76 501.65,100.00"/>
    </edge>
    <edge id=":8_2" function="internal">
        <lane id=":8_2_0" index="0" speed="14.00" length="0.10" shape="501.65,100.00 501.65,100.00"/>
    </edge>
    <edge id=":8_3" function="internal">
        <lane id=":8_3_0" index="0" speed="14.00" length="2.41" shape="501.65,100.00 500.82,101.24 500.00,101.65"/>
    </edge>
    <edge id=":8_5" function="internal">
        <lane id=":8_5_0" index="0" speed="14.00" length="2.41" shape="500.00,101.65 499.18,101.24 498.35,100.00"/>
    </edge>
    <edge id=":9_0" function="internal">
        <lane id=":9_0_0" index="0" speed="14.00" length="5.00" shape="498.35,504.75 498.16,503.39 497.58,502.42 496.61,501.84 495.25,501.65"/>
    </edge>
    <edge id=":9_1" function="internal">
        <lane id=":9_1_0" index="0" speed="14.00" length="9.50" shape="498.35,504.75 498.35,495.25"/>
    </edge>
    <edge id=":9_2" function="internal">
        <lane id=":9_2_0" index="0" speed="14.00" length="5.28" shape="498.35,504.75 498.75,501.95 499.95,499.95 500.05,499.89"/>
    </edge>
    <edge id=":9_3" function="internal">
        <lane id=":9_3_0" index="0" speed="14.00" length="2.41" shape="498.35,504.75 499.18,503.51 500.00,503.10"/>
    </edge>
    <edge id=":9_16" function="internal">
        <lane id=":9_16_0" index="0" speed="14.00" length="5.04" shape="500.05,499.89 501.95,498.75 504.75,498.35"/>
    </edge>
    <edge id=":9_17" function="internal">
        <lane id=":9_17_0" index="0" speed="14.00" length="2.41" shape="500.00,503.10 500.82,503.51 501.65,504.75"/>
    </edge>
    <edge id=":9_4" function="internal">
        <lane id=":9_4_0" index="0" speed="14.00" length="5.00" shape="504.75,501.65 503.39,501.84 502.42,502.42 501.84,503.39 501.65,504.75"/>
    </edge>
    <edge id=":9_5" function="internal">
        <lane id=":9_5_0" index="0" speed="14.00" length="9.50" shape="504.75,501.65 495.25,501.65"/>
    </edge>
    <edge id=":9_6" function="internal">
        <lane id=":9_6_0" index="0" speed="14.00" length="5.28" shape="504.75,501.65 501.95,501.25 499.95,500.05 499.89,499.95"/>
    </edge>
    <edge id=":9_7" function="internal">
        <lane id=":9_7_0" index="0" speed="14.00" length="2.41" shape="504.75,501.65 503.51,500.82 503.10,500.00"/>
    </edge>
    <edge id=":9_18" function="internal">
        <lane id=":9_18_0" index="0" speed="14.00" length="5.04" shape="499.89,499.95 498.75,498.05 498.35,495.25"/>
    </edge>
    <edge id=":9_19" function="internal">
        <lane id=":9_19_0" index="0" speed="14.00" length="2.41" shape="503.10,500.00 503.51,499.18 504.75,498.35"/>
    </edge>
    <edge id=":9_8" function="internal">
        <lane id=":9_8_0" index="0" speed="14.00" length="5.00" shape="501.65,495.25 501.84,496.61 502.42,497.58 503.39,498.16 504.75,498.35"/>
    </edge>
    <edge id=":9_9" function="internal">
        <lane id=":9_9_0" index="0" speed="14.00" length="9.50" shape="501.65,495.25 501.65,504.75"/>
    </edge>
    <edge id=":9_10" function="internal">
        <lane id=":9_10_0" index="0" speed="14.00" length="5.28" shape="501.65,495.25 501.25,498.05 500.05,500.05 499.95,500.11"/>
    </edge>
    <edge id=":9_11" function="internal">
        <lane id=":9_11_0" index="0" speed="14.00" length="2.41" shape="501.65,495.25 500.82,496.49 500.00,496.90"/>
    </edge>
    <edge id=":9_20" function="internal">
        <lane id=":9_20_0" index="0" speed="14.00" length="5.04" shape="499.95,500.11 498.05,501.25 495.25,501.65"/>
    </edge>
    <edge id=":9_21" function="internal">
        <lane id=":9_21_0" index="0" speed="14.00" length="2.41" shape="500.00,496.90 499.18,496.49 498.35,495.25"/>
    </edge>
    <edge id=":9_12" function="internal">
        <lane id=":9_12_0" index="0" speed="14.00" length="5.00" shape="495.25,498.35 496.61,498.16 497.58,497.58 498.16,496.61 498.35,495.25"/>
    </edge>
    <edge id=":9_13" function="internal">
        <lane id=":9_13_0" index="0" speed="14.00" length="9.50" shape="495.25,498.35 504.75,498.35"/>
    </edge>
    <edge id=":9_14" function="internal">
        <lane id=":9_14_0" index="0" speed="14.00" length="5.28" shape="495.25,498.35 498.05,498.75 500.05,499.95 500.11,500.05"/>
    </edge>
    <edge id=":9_15" function="internal">
        <lane id=":9_15_0" index="0" speed="14.00" length="2.41" shape="495.25,498.35 496.49,499.18 496.90,500.00"/>
    </edge>
    <edge id=":9_22" function="internal">
        <lane id=":9_22_0" index="0" speed="14.00" length="5.04" shape="500.11,500.05 501.25,501.95 501.65,504.75"/>
    </edge>
    <edge id=":9_23" function="internal">
        <lane id=":9_23_0" index="0" speed="14.00" length="2.41" shape="496.90,500.00 496.49,500.82 495.25,501.65"/>
    </edge>

    <edge id="D1" from="5" to="1" priority="1" type="a">
        <lane id="D1_0" index="0" speed="14.00" length="100.00" shape="100.00,501.65 0.00,501.65"/>
    </edge>
    <edge id="D2" from="1" to="5" priority="1" type="a">
        <lane id="D2_0" index="0" speed="14.00" length="100.00" shape="0.00,498.35 100.00,498.35"/>
    </edge>
    <edge id="D3" from="6" to="2" priority="1" type="a">
        <lane id="D3_0" index="0" speed="14.00" length="100.00" shape="501.65,900.00 501.65,1000.00"/>
    </edge>
    <edge id="D4" from="2" to="6" priority="1" type="a">
        <lane id="D4_0" index="0" speed="14.00" length="100.00" shape="498.35,1000.00 498.35,900.00"/>
    </edge>
    <edge id="D5" from="4" to="8" priority="1" type="a">
        <lane id="D5_0" index="0" speed="14.00" length="100.00" shape="501.65,0.00 501.65,100.00"/>
    </edge>
    <edge id="D6" from="8" to="4" priority="1" type="a">
        <lane id="D6_0" index="0" speed="14.00" length="100.00" shape="498.35,100.00 498.35,0.00"/>
    </edge>
    <edge id="D7" from="7" to="3" priority="1" type="a">
        <lane id="D7_0" index="0" speed="14.00" length="100.00" shape="900.00,498.35 1000.00,498.35"/>
    </edge>
    <edge id="D8" from="3" to="7" priority="1" type="a">
        <lane id="D8_0" index="0" speed="14.00" length="100.00" shape="1000.00,501.65 900.00,501.65"/>
    </edge>
    <edge id="L1" from="5" to="9" priority="1" type="a">
        <lane id="L1_0" index="0" speed="14.00" length="395.25" shape="100.00,498.35 495.25,498.35"/>
    </edge>
    <edge id="L2" from="9" to="5" priority="1" type="a">
        <lane id="L2_0" index="0" speed="14.00" length="395.25" shape="495.25,501.65 100.00,501.65"/>
    </edge>
    <edge id="L3" from="6" to="9" priority="1" type="a">
        <lane id="L3_0" index="0" speed="14.00" length="395.25" shape="498.35,900.00 498.35,504.75"/>
    </edge>
    <edge id="L4" from="9" to="6" priority="1" type="a">
        <lane id="L4_0" index="0" speed="14.00" length="395.25" shape="501.65,504.75 501.65,900.00"/>
    </edge>
    <edge id="L5" from="8" to="9" priority="1" type="a">
        <lane id="L5_0" index="0" speed="14.00" length="395.25" shape="501.65,100.00 501.65,495.25"/>
    </edge>
    <edge id="L6" from="9" to="8" priority="1" type="a">
        <lane id="L6_0" index="0" speed="14.00" length="395.25" shape="498.35,495.25 498.35,100.00"/>
    </edge>
    <edge id="L7" from="7" to="9" priority="1" type="a">
        <lane id="L7_0" index="0" speed="14.00" length="395.25" shape="900.00,501.65 504.75,501.65"/>
    </edge>
    <edge id="L8" from="9" to="7" priority="1" type="a">
        <lane id="L8_0" index="0" speed="14.00" length="395.25" shape="504.75,498.35 900.00,498.35"/>
    </edge>

    <tlLogic id="5" type="static" programID="0" offset="0">
        <phase duration="31" state="GgGg"/>
        <phase duration="4" state="yyyy"/>
    </tlLogic>
    <tlLogic id="9" type="static" programID="0" offset="0">
        <phase duration="31" state="GGggrrrrGGggrrrr"/>
        <phase duration="4" state="yyggrrrryyggrrrr"/>
        <phase duration="6" state="rrGGrrrrrrGGrrrr"/>
        <phase duration="4" state="rryyrrrrrryyrrrr"/>
        <phase duration="31" state="rrrrGGggrrrrGGgg"/>
        <phase duration="4" state="rrrryyggrrrryygg"/>
        <phase duration="6" state="rrrrrrGGrrrrrrGG"/>
        <phase duration="4" state="rrrrrryyrrrrrryy"/>
    </tlLogic>

    <junction id="1" type="priority" x="0.00" y="500.00" incLanes="D1_0" intLanes=":1_0_0" shape="-0.00,499.95 -0.00,496.75 0.00,503.25 0.00,500.05">
        <request index="0" response="0" foes="0" cont="0"/>
    </junction>
    <junction id="2" type="priority" x="500.00" y="1000.00" incLanes="D3_0" intLanes=":2_0_0" shape="499.95,1000.00 496.75,1000.00 503.25,1000.00 500.05,1000.00">
        <request index="0" response="0" foes="0" cont="0"/>
    </junction>
    <junction id="3" type="priority" x="1000.00" y="500.00" incLanes="D7_0" intLanes=":3_0_0" shape="1000.00,500.05 1000.00,503.25 1000.00,496.75 1000.00,499.95">
        <request index="0" response="0" foes="0" cont="0"/>
    </junction>
    <junction id="4" type="priority" x="500.00" y="0.00" incLanes="D6_0" intLanes=":4_0_0" shape="500.05,-0.00 503.25,-0.00 496.75,0.00 499.95,0.00">
        <request index="0" response="0" foes="0" cont="0"/>
    </junction>
    <junction id="5" type="traffic_light" x="100.00" y="500.00" incLanes="L2_0 D2_0" intLanes=":5_0_0 :5_4_0 :5_2_0 :5_5_0" shape="100.00,503.25 100.00,496.75 100.00,503.25">
        <request index="0" response="0000" foes="1000" cont="0"/>
        <request index="1" response="0100" foes="0100" cont="1"/>
        <request index="2" response="0000" foes="0010" cont="0"/>
        <request index="3" response="0001" foes="0001" cont="1"/>
    </junction>
    <junction id="6" type="priority" x="500.00" y="900.00" incLanes="D4_0 L4_0" intLanes=":6_0_0 :6_4_0 :6_2_0 :6_5_0" shape="496.75,900.00 503.25,900.00 496.75,900.00">
        <request index="0" response="0000" foes="1000" cont="0"/>
        <request index="1" response="0100" foes="0100" cont="1"/>
        <request index="2" response="0000" foes="0010" cont="0"/>
        <request index="3" response="0001" foes="0001" cont="1"/>
    </junction>
    <junction id="7" type="priority" x="900.00" y="500.00" incLanes="D8_0 L8_0" intLanes=":7_0_0 :7_4_0 :7_2_0 :7_5_0" shape="900.00,503.25 900.00,496.75 900.00,503.25">
        <request index="0" response="0000" foes="1000" cont="0"/>
        <request index="1" response="0100" foes="0100" cont="1"/>
        <request index="2" response="0000" foes="0010" cont="0"/>
        <request index="3" response="0001" foes="0001" cont="1"/>
    </junction>
    <junction id="8" type="priority" x="500.00" y="100.00" incLanes="L6_0 D5_0" intLanes=":8_0_0 :8_4_0 :8_2_0 :8_5_0" shape="496.75,100.00 503.25,100.00 496.75,100.00">
        <request index="0" response="0000" foes="1000" cont="0"/>
        <request index="1" response="0100" foes="0100" cont="1"/>
        <request index="2" response="0000" foes="0010" cont="0"/>
        <request index="3" response="0001" foes="0001" cont="1"/>
    </junction>
    <junction id="9" type="traffic_light" x="500.00" y="500.00" incLanes="L3_0 L7_0 L5_0 L1_0" intLanes=":9_0_0 :9_1_0 :9_16_0 :9_17_0 :9_4_0 :9_5_0 :9_18_0 :9_19_0 :9_8_0 :9_9_0 :9_20_0 :9_21_0 :9_12_0 :9_13_0 :9_22_0 :9_23_0" shape="496.75,504.75 503.25,504.75 504.75,503.25 504.75,496.75 503.25,495.25 496.75,495.25 495.25,496.75 495.25,503.25">
        <request index="0" response="0000000000000000" foes="1000010000100000" cont="0"/>
        <request index="1" response="0000000000000000" foes="0111110001100000" cont="0"/>
        <request index="2" response="0000001100000000" foes="0110001111100000" cont="1"/>
        <request index="3" response="0100001000010000" foes="0100001000010000" cont="1"/>
        <request index="4" response="0000001000000000" foes="0100001000001000" cont="0"/>
        <request index="5" response="0000011000000111" foes="1100011000000111" cont="0"/>
        <request index="6" response="0011011000000110" foes="0011111000000110" cont="1"/>
        <request index="7" response="0010000100000100" foes="0010000100000100" cont="1"/>
        <request index="8" response="0000000000000000" foes="0010000010000100" cont="0"/>
        <request index="9" response="0000000000000000" foes="0110000001111100" cont="0"/>
        <request index="10" response="0000000000000011" foes="1110000001100011" cont="1"/>
        <request index="11" response="0001000001000010" foes="0001000001000010" cont="1"/>
        <request index="12" response="0000000000000010" foes="0000100001000010" cont="0"/>
        <request index="13" response="0000011100000110" foes="0000011111000110" cont="0"/>
        <request index="14" response="0000011000110110" foes="0000011000111110" cont="1"/>
        <request index="15" response="0000010000100001" foes="0000010000100001" cont="1"/>
    </junction>

    <junction id=":5_4_0" type="internal" x="98.35" y="500.00" incLanes=":5_1_0 D2_0" intLanes=":5_2_0"/>
    <junction id=":5_5_0" type="internal" x="101.65" y="500.00" incLanes=":5_3_0 L2_0" intLanes=":5_0_0"/>
    <junction id=":6_4_0" type="internal" x="500.00" y="898.35" incLanes=":6_1_0 L4_0" intLanes=":6_2_0"/>
    <junction id=":6_5_0" type="internal" x="500.00" y="901.65" incLanes=":6_3_0 D4_0" intLanes=":6_0_0"/>
    <junction id=":7_4_0" type="internal" x="898.35" y="500.00" incLanes=":7_1_0 L8_0" intLanes=":7_2_0"/>
    <junction id=":7_5_0" type="internal" x="901.65" y="500.00" incLanes=":7_3_0 D8_0" intLanes=":7_0_0"/>
    <junction id=":8_4_0" type="internal" x="500.00" y="98.35" incLanes=":8_1_0 D5_0" intLanes=":8_2_0"/>
    <junction id=":8_5_0" type="internal" x="500.00" y="101.65" incLanes=":8_3_0 L6_0" intLanes=":8_0_0"/>
    <junction id=":9_16_0" type="internal" x="500.05" y="499.89" incLanes=":9_2_0 L5_0" intLanes=":9_5_0 :9_6_0 :9_7_0 :9_8_0 :9_9_0 :9_13_0 :9_14_0"/>
    <junction id=":9_17_0" type="internal" x="500.00" y="503.10" incLanes=":9_3_0 L1_0 L5_0 L7_0" intLanes=":9_4_0 :9_9_0 :9_14_0"/>
    <junction id=":9_18_0" type="internal" x="499.89" y="499.95" incLanes=":9_6_0 L1_0" intLanes=":9_1_0 :9_2_0 :9_9_0 :9_10_0 :9_11_0 :9_12_0 :9_13_0"/>
    <junction id=":9_19_0" type="internal" x="503.10" y="500.00" incLanes=":9_7_0 L1_0 L3_0 L5_0" intLanes=":9_2_0 :9_8_0 :9_13_0"/>
    <junction id=":9_20_0" type="internal" x="499.95" y="500.11" incLanes=":9_10_0 L3_0" intLanes=":9_0_0 :9_1_0 :9_5_0 :9_6_0 :9_13_0 :9_14_0 :9_15_0"/>
    <junction id=":9_21_0" type="internal" x="500.00" y="496.90" incLanes=":9_11_0 L1_0 L3_0 L7_0" intLanes=":9_1_0 :9_6_0 :9_12_0"/>
    <junction id=":9_22_0" type="internal" x="500.11" y="500.05" incLanes=":9_14_0 L7_0" intLanes=":9_1_0 :9_2_0 :9_3_0 :9_4_0 :9_5_0 :9_9_0 :9_10_0"/>
    <junction id=":9_23_0" type="internal" x="496.90" y="500.00" incLanes=":9_15_0 L3_0 L5_0 L7_0" intLanes=":9_0_0 :9_5_0 :9_10_0"/>

    <connection from="D1" to="D2" fromLane="0" toLane="0" via=":1_0_0" dir="t" state="M"/>
    <connection from="D2" to="L1" fromLane="0" toLane="0" via=":5_2_0" tl="5" linkIndex="2" dir="s" state="o"/>
    <connection from="D2" to="D1" fromLane="0" toLane="0" via=":5_3_0" tl="5" linkIndex="3" dir="t" state="o"/>
    <connection from="D3" to="D4" fromLane="0" toLane="0" via=":2_0_0" dir="t" state="M"/>
    <connection from="D4" to="L3" fromLane="0" toLane="0" via=":6_0_0" dir="s" state="M"/>
    <connection from="D4" to="D3" fromLane="0" toLane="0" via=":6_1_0" dir="t" state="m"/>
    <connection from="D5" to="L5" fromLane="0" toLane="0" via=":8_2_0" dir="s" state="M"/>
    <connection from="D5" to="D6" fromLane="0" toLane="0" via=":8_3_0" dir="t" state="m"/>
    <connection from="D6" to="D5" fromLane="0" toLane="0" via=":4_0_0" dir="t" state="M"/>
    <connection from="D7" to="D8" fromLane="0" toLane="0" via=":3_0_0" dir="t" state="M"/>
    <connection from="D8" to="L7" fromLane="0" toLane="0" via=":7_0_0" dir="s" state="M"/>
    <connection from="D8" to="D7" fromLane="0" toLane="0" via=":7_1_0" dir="t" state="m"/>
    <connection from="L1" to="L6" fromLane="0" toLane="0" via=":9_12_0" tl="9" linkIndex="12" dir="r" state="o"/>
    <connection from="L1" to="L8" fromLane="0" toLane="0" via=":9_13_0" tl="9" linkIndex="13" dir="s" state="o"/>
    <connection from="L1" to="L4" fromLane="0" toLane="0" via=":9_14_0" tl="9" linkIndex="14" dir="l" state="o"/>
    <connection from="L1" to="L2" fromLane="0" toLane="0" via=":9_15_0" tl="9" linkIndex="15" dir="t" state="o"/>
    <connection from="L2" to="D1" fromLane="0" toLane="0" via=":5_0_0" tl="5" linkIndex="0" dir="s" state="o"/>
    <connection from="L2" to="L1" fromLane="0" toLane="0" via=":5_1_0" tl="5" linkIndex="1" dir="t" state="o"/>
    <connection from="L3" to="L2" fromLane="0" toLane="0" via=":9_0_0" tl="9" linkIndex="0" dir="r" state="o"/>
    <connection from="L3" to="L6" fromLane="0" toLane="0" via=":9_1_0" tl="9" linkIndex="1" dir="s" state="o"/>
    <connection from="L3" to="L8" fromLane="0" toLane="0" via=":9_2_0" tl="9" linkIndex="2" dir="l" state="o"/>
    <connection from="L3" to="L4" fromLane="0" toLane="0" via=":9_3_0" tl="9" linkIndex="3" dir="t" state="o"/>
    <connection from="L4" to="D3" fromLane="0" toLane="0" via=":6_2_0" dir="s" state="M"/>
    <connection from="L4" to="L3" fromLane="0" toLane="0" via=":6_3_0" dir="t" state="m"/>
    <connection from="L5" to="L8" fromLane="0" toLane="0" via=":9_8_0" tl="9" linkIndex="8" dir="r" state="o"/>
    <connection from="L5" to="L4" fromLane="0" toLane="0" via=":9_9_0" tl="9" linkIndex="9" dir="s" state="o"/>
    <connection from="L5" to="L2" fromLane="0" toLane="0" via=":9_10_0" tl="9" linkIndex="10" dir="l" state="o"/>
    <connection from="L5" to="L6" fromLane="0" toLane="0" via=":9_11_0" tl="9" linkIndex="11" dir="t" state="o"/>
    <connection from="L6" to="D6" fromLane="0" toLane="0" via=":8_0_0" dir="s" state="M"/>
    <connection from="L6" to="L5" fromLane="0" toLane="0" via=":8_1_0" dir="t" state="m"/>
    <connection from="L7" to="L4" fromLane="0" toLane="0" via=":9_4_0" tl="9" linkIndex="4" dir="r" state="o"/>
    <connection from="L7" to="L2" fromLane="0" toLane="0" via=":9_5_0" tl="9" linkIndex="5" dir="s" state="o"/>
    <connection from="L7" to="L6" fromLane="0" toLane="0" via=":9_6_0" tl="9" linkIndex="6" dir="l" state="o"/>
    <connection from="L7" to="L8" fromLane="0" toLane="0" via=":9_7_0" tl="9" linkIndex="7" dir="t" state="o"/>
    <connection from="L8" to="D7" fromLane="0" toLane="0" via=":7_2_0" dir="s" state="M"/>
    <connection from="L8" to="L7" fromLane="0" toLane="0" via=":7_3_0" dir="t" state="m"/>

    <connection from=":1_0" to="D2" fromLane="0" toLane="0" dir="s" state="M"/>
    <connection from=":2_0" to="D4" fromLane="0" toLane="0" dir="s" state="M"/>
    <connection from=":3_0" to="D8" fromLane="0" toLane="0" dir="s" state="M"/>
    <connection from=":4_0" to="D5" fromLane="0" toLane="0" dir="s" state="M"/>
    <connection from=":5_0" to="D1" fromLane="0" toLane="0" dir="s" state="M"/>
    <connection from=":5_1" to="L1" fromLane="0" toLane="0" via=":5_4_0" dir="s" state="m"/>
    <connection from=":5_4" to="L1" fromLane="0" toLane="0" dir="s" state="M"/>
    <connection from=":5_2" to="L1" fromLane="0" toLane="0" dir="s" state="M"/>
    <connection from=":5_3" to="D1" fromLane="0" toLane="0" via=":5_5_0" dir="s" state="m"/>
    <connection from=":5_5" to="D1" fromLane="0" toLane="0" dir="s" state="M"/>
    <connection from=":6_0" to="L3" fromLane="0" toLane="0" dir="s" state="M"/>
    <connection from=":6_1" to="D3" fromLane="0" toLane="0" via=":6_4_0" dir="s" state="m"/>
    <connection from=":6_4" to="D3" fromLane="0" toLane="0" dir="s" state="M"/>
    <connection from=":6_2" to="D3" fromLane="0" toLane="0" dir="s" state="M"/>
    <connection from=":6_3" to="L3" fromLane="0" toLane="0" via=":6_5_0" dir="s" state="m"/>
    <connection from=":6_5" to="L3" fromLane="0" toLane="0" dir="s" state="M"/>
    <connection from=":7_0" to="L7" fromLane="0" toLane="0" dir="s" state="M"/>
    <connection from=":7_1" to="D7" fromLane="0" toLane="0" via=":7_4_0" dir="s" state="m"/>
    <connection from=":7_4" to="D7" fromLane="0" toLane="0" dir="s" state="M"/>
    <connection from=":7_2" to="D7" fromLane="0" toLane="0" dir="s" state="M"/>
    <connection from=":7_3" to="L7" fromLane="0" toLane="0" via=":7_5_0" dir="s" state="m"/>
    <connection from=":7_5" to="L7" fromLane="0" toLane="0" dir="s" state="M"/>
    <connection from=":8_0" to="D6" fromLane="0" toLane="0" dir="s" state="M"/>
    <connection from=":8_1" to="L5" fromLane="0" toLane="0" via=":8_4_0" dir="s" state="m"/>
    <connection from=":8_4" to="L5" fromLane="0" toLane="0" dir="s" state="M"/>
    <connection from=":8_2" to="L5" fromLane="0" toLane="0" dir="s" state="M"/>
    <connection from=":8_3" to="D6" fromLane="0" toLane="0" via=":8_5_0" dir="s" state="m"/>
    <connection from=":8_5" to="D6" fromLane="0" toLane="0" dir="s" state="M"/>
    <connection from=":9_0" to="L2" fromLane="0" toLane="0" dir="s" state="M"/>
    <connection from=":9_1" to="L6" fromLane="0" toLane="0" dir="s" state="M"/>
    <connection from=":9_2" to="L8" fromLane="0" toLane="0" via=":9_16_0" dir="s" state="m"/>
    <connection from=":9_16" to="L8" fromLane="0" toLane="0" dir="s" state="M"/>
    <connection from=":9_3" to="L4" fromLane="0" toLane="0" via=":9_17_0" dir="s" state="m"/>
    <connection from=":9_17" to="L4" fromLane="0" toLane="0" dir="s" state="M"/>
    <connection from=":9_4" to="L4" fromLane="0" toLane="0" dir="s" state="M"/>
    <connection from=":9_5" to="L2" fromLane="0" toLane="0" dir="s" state="M"/>
    <connection from=":9_6" to="L6" fromLane="0" toLane="0" via=":9_18_0" dir="s" state="m"/>
    <connection from=":9_18" to="L6" fromLane="0" toLane="0" dir="s" state="M"/>
    <connection from=":9_7" to="L8" fromLane="0" toLane="0" via=":9_19_0" dir="s" state="m"/>
    <connection from=":9_19" to="L8" fromLane="0" toLane="0" dir="s" state="M"/>
    <connection from=":9_8" to="L8" fromLane="0" toLane="0" dir="s" state="M"/>
    <connection from=":9_9" to="L4" fromLane="0" toLane="0" dir="s" state="M"/>
    <connection from=":9_10" to="L2" fromLane="0" toLane="0" via=":9_20_0" dir="s" state="m"/>
    <connection from=":9_20" to="L2" fromLane="0" toLane="0" dir="s" state="M"/>
    <connection from=":9_11" to="L6" fromLane="0" toLane="0" via=":9_21_0" dir="s" state="m"/>
    <connection from=":9_21" to="L6" fromLane="0" toLane="0" dir="s" state="M"/>
    <connection from=":9_12" to="L6" fromLane="0" toLane="0" dir="s" state="M"/>
    <connection from=":9_13" to="L8" fromLane="0" toLane="0" dir="s" state="M"/>
    <connection from=":9_14" to="L4" fromLane="0" toLane="0" via=":9_22_0" dir="s" state="m"/>
    <connection from=":9_22" to="L4" fromLane="0" toLane="0" dir="s" state="M"/>
    <connection from=":9_15" to="L2" fromLane="0" toLane="0" via=":9_23_0" dir="s" state="m"/>
    <connection from=":9_23" to="L2" fromLane="0" toLane="0" dir="s" state="M"/>

</net>
